
    CNRS - NERC - Met OFFICE - MERCATOR-ocean - CMCC
                        NEMO team
             Ocean General Circulation Model
                 NEMO version 4.0  (2019) 

            ._      ._      ._      ._      ._    
        _.-._)`\_.-._)`\_.-._)`\_.-._)`\_.-._)`\_ 

            o         _,           _,             
             o      .' (        .-' /             
            o     _/..._'.    .'   /              
       (    o .-'`      ` '-./  _.'               
        )    ( o)           ;= <_         (       
       (      '-.,\\__ __.-;`\   '.        )      
        )  )       \) |`\ \)  '.   \      (   (   
       (  (           \_/       '-._\      )   )  
        )  ) jgs                     `    (   (   
      ^^^^^^^^^^^^^^^^^^^^^^^^^^^^^^^^^^^^^^^^^^^ 


AAAAAAAA

    
 usr_def_nam  : read the user defined namelist (namusr_def) in namelist_cfg
 ~~~~~~~~~~~ 
    Namelist namusr_def : SLOPE test case
       type of vertical coordinate : 
          z-coordinate flag                     ln_zco =  T
          z-partial-step coordinate flag        ln_zps =  F
          s-coordinate flag                     ln_sco =  F
       horizontal resolution                    rn_dx  =    250.00000000000000       meters
       vertical   resolution                    rn_dz  =    5.0000000000000000       meters
       SLOPE domain = 200 km x 3 grid-points x 2000 m
          resulting global domain size :        jpiglo =          802
                                                jpjglo =            3
                                                jpkglo =          401
    
    Lateral boundary condition of the global domain
       SLOPE : closed basin                  jperio =            0
    Namelist nammpp
       jpni and jpnj will be calculated automatically
       avoid use of mpi_allgather at the north fold  ln_nnogather =  T
 mpp_init:
 ~~~~~~~~ 

    ==> you use the best mpi decomposition

   Number of mpi processes:     6
   Number of ocean subdomains =     6
   Number of suppressed land subdomains =     0


 MPI Message Passing MPI - domain lay out over processors

    defines mpp subdomains
       jpni =            6
       jpnj =            1

       sum ilci(i,1) =          812  jpiglo =          802
       sum ilcj(1,j) =            3  jpjglo =            3

           ****************************************************************
           *              *               *               *               *   
         1 *  136  x  3   *   136  x  3   *   135  x  3   *   135  x  3   *   
           *          0   *           1   *           2   *           3   *        
           *              *               *               *               *   
           ****************************************************************
                   1               2               3               4             

           ********************************
           *              *               *   
         1 *  135  x  3   *   135  x  3   *   
           *          4   *           5   *        
           *              *               *   
           ********************************
                   5               6             

    resulting internal parameters : 
       nproc  =            0
       nowe   =           -1    noea  =             1
       nono   =           -1    noso  =            -1
       nbondi =           -1
       nbondj =            2
       npolj  =            0
     l_Iperio =  F
     l_Jperio =  F
       nlci   =          136
       nlcj   =            3
       nimpp  =            1
       njmpp  =            1
       nreci  =            2
       nrecj  =            2
       nn_hls =            1

 mpp_init_ioipsl :   iloc  =          136           3
 ~~~~~~~~~~~~~~~     iabsf =            1           1
                     ihals =            0           0
                     ihale =            1           0

 nemo_ctl: Control prints
 ~~~~~~~~
    Namelist namctl
       run control (for debugging)     ln_ctl     =  F
        finer control over o/p sn_cfctl%l_config  =  T
                               sn_cfctl%l_runstat =  F
                               sn_cfctl%l_trcstat =  F
                               sn_cfctl%l_oceout  =  F
                               sn_cfctl%l_layout  =  F
                               sn_cfctl%l_mppout  =  F
                               sn_cfctl%l_mpptop  =  F
                               sn_cfctl%procmin   =            0
                               sn_cfctl%procmax   =      1000000
                               sn_cfctl%procincr  =            1
                               sn_cfctl%ptimincr  =            1
       level of print                  nn_print   =            0
       Start i indice for SUM control  nn_ictls   =            0
       End i indice for SUM control    nn_ictle   =            0
       Start j indice for SUM control  nn_jctls   =            0
       End j indice for SUM control    nn_jctle   =            0
       number of proc. following i     nn_isplt   =            1
       number of proc. following j     nn_jsplt   =            1
       timing by routine               ln_timing  =  F
       CFL diagnostics                 ln_diacfl  =  F

    Namelist namcfg
       read domain configuration file                ln_read_cfg      =  F
          filename to be read                           cn_domcfg     = domain_cfg
          keep closed seas in the domain (if exist)     ln_closea     =  F
       create a configuration definition file        ln_write_cfg     =  F
          filename to be written                        cn_domcfg_out = domain_cfg_out
       use file attribute if exists as i/p j-start   ln_use_jattr     =  F

 phy_cst : initialization of ocean parameters and constants
 ~~~~~~~
       mathematical constant                 rpi =    3.1415926535897931     
       day                                rday   =    86400.000000000000       s
       sideral year                       rsiyea =    31558149.010110732       s
       sideral day                        rsiday =    86164.099655911836       s
       omega                              omega  =    7.2921150830460618E-005  s^-1

       nb of months per year               raamo =    12.000000000000000       months
       nb of hours per day                 rjjhh =    24.000000000000000       hours
       nb of minutes per hour              rhhmm =    60.000000000000000       mn
       nb of seconds per minute            rmmss =    60.000000000000000       s

       earth radius                         ra   =    6371229.0000000000       m
       gravity                              grav =    9.8066499999999994       m/s^2

       freezing point of water              rt0  =    273.14999999999998       K

    reference density and heat capacity now defined in eosbn2.f90

       thermal conductivity of pure ice          =    2.0343960000000001       J/s/m/K
       thermal conductivity of snow is defined in a namelist 
       fresh ice specific heat                   =    2067.0000000000000       J/kg/K
       latent heat of fusion of fresh ice / snow =    334000.00000000000       J/kg
       latent heat of subl.  of fresh ice / snow =    2834000.0000000000       J/kg
       density of sea ice                        =    917.00000000000000       kg/m^3
       density of snow                           =    330.00000000000000       kg/m^3
       density of freshwater (in melt ponds)     =    1000.0000000000000       kg/m^3
       salinity of ice (for pisces)              =    6.0000000000000000       psu
       salinity of sea (for pisces and isf)      =    34.700000000000003       psu
       latent heat of evaporation (water)        =    2500000.0000000000       J/m^3
       von Karman constant                       =   0.40000000000000002     
       Stefan-Boltzmann constant                 =    5.6699999999999998E-008  J/s/m^2/K^4

       conversion: degre ==> radian          rad =    1.7453292519943295E-002

       smallest real computer value       rsmall =    1.1102230246251565E-016

 eos_init : equation of state
 ~~~~~~~~
    Namelist nameos : Chosen the Equation Of Seawater (EOS)
       TEOS-10 : rho=F(Conservative Temperature, Absolute  Salinity, depth)   ln_TEOS10 =  F
       EOS-80  : rho=F(Potential    Temperature, Practical Salinity, depth)   ln_EOS80  =  F
       S-EOS   : rho=F(Conservative Temperature, Absolute  Salinity, depth)   ln_SEOS   =  T

    ==>>>   use of simplified eos:    
               rhd(dT=T-10,dS=S-35,Z) = [-a0*(1+lambda1/2*dT+mu1*Z)*dT 
                                        + b0*(1+lambda2/2*dT+mu2*Z)*dS - nu*dT*dS] / rau0
               with the following coefficients :
                  thermal exp. coef.    rn_a0      =   0.20000000000000001     
                  saline  cont. coef.   rn_b0      =    0.0000000000000000     
                  cabbeling coef.       rn_lambda1 =    0.0000000000000000     
                  cabbeling coef.       rn_lambda2 =    0.0000000000000000     
                  thermobar. coef.      rn_mu1     =    0.0000000000000000     
                  thermobar. coef.      rn_mu2     =    0.0000000000000000     
                  2nd cabbel. coef.     rn_nu      =    0.0000000000000000     
               Caution: rn_beta0=0 incompatible with ddm parameterization 

    ==>>>   model uses Conservative Temperature
            Important: model must be initialized with CT and SA fields

    Associated physical constant
       volumic mass of reference           rau0  =    1026.0000000000000       kg/m^3
       1. / rau0                        r1_rau0  =    9.7465886939571145E-004  m^3/kg
       ocean specific heat                 rcp   =    3991.8679571196299       J/Kelvin
       rau0 * rcp                       rau0_rcp =    4095656.5240047402     
       1. / ( rau0 * rcp )           r1_rau0_rcp =    2.4416109948160356E-007

 wad_init : Wetting and drying initialization through namelist read
 ~~~~~~~~
    Namelist namwad
       Logical for Iter Lim wd option   ln_wd_il     =  F
       Logical for Dir. Lim wd option   ln_wd_dl     =  F
       Depth at which wet/drying starts rn_wdmin0    =   0.29999999999999999     
       Minimum wet depth on dried cells rn_wdmin1    =   0.20000000000000001     
       Tolerance of min wet depth       rn_wdmin2    =    1.0000000000000000E-004
       land elevation threshold         rn_wdld      =    2.5000000000000000     
       Max iteration for W/D limiter    nn_wdit      =           20
       T => baroclinic u,v=0 at dry pts: ln_wd_dl_bc =  F
       use a ramp for rwd limiter:  ln_wd_dl_rwd_rmp =  F
       cut off depth sbc for wd   rn_wd_sbcdep       =    5.0000000000000000     
       fraction to start sbc wgt rn_wd_sbcfra        =   0.99900000000000000     
       No configuration file so seting ssh_ref to zero  

 dom_init : domain initialization
 ~~~~~~~~
    Domain info
       dimension of model:
              Local domain      Global domain       Data domain 
               jpi     :     136   jpiglo  :     802
               jpj     :       3   jpjglo  :       3
               jpk     :     401   jpkglo  :     401
               jpij    :     408
       mpp local domain info (mpp):
               jpni    :            6    nn_hls  :            1
               jpnj    :            1    nn_hls  :            1
               jpnij   :            6
       lateral boundary of the Global domain : jperio  =            0
          (i.e. closed)
       Ocean model configuration used:
          cn_cfg = SLOPE   nn_cfg =          250

 dom_glo : domain: global <<==>> local 
 ~~~~~~~ 
    global domain:   jpiglo =          802  jpjglo =            3  jpkglo =          401
    local  domain:   jpi    =          136  jpj    =            3  jpk    =          401

    conversion from local to global domain indices (and vise versa) done

 dom_nam : domain initialization through namelist read
 ~~~~~~~ 
    Namelist : namrun   ---   run parameters
       Assimilation cycle              nn_no           =            0
       experiment name for output      cn_exp          = SLO_zco_5m_lowkz
       file prefix restart input       cn_ocerst_in    = restart
       restart input directory         cn_ocerst_indir = .
       file prefix restart output      cn_ocerst_out   = restart
       restart output directory        cn_ocerst_outdir= .
       restart logical                 ln_rstart       =  F
       start with forward time step    nn_euler        =            1
       control of time step            nn_rstctl       =            0
       number of the first time step   nn_it000        =            1
       number of the last time step    nn_itend        =         3060
       initial calendar date aammjj    nn_date0        =        10101
       initial time of day in hhmm     nn_time0        =            0
       leap year calendar (0/1)        nn_leapy        =            0
       initial state output            nn_istate       =            1
       frequency of restart file       nn_stock        =         6120
       mask land points                ln_mskland      =  F
       additional CF standard metadata ln_cfmeta       =  F
       overwrite an existing file      ln_clobber      =  T
       NetCDF chunksize (bytes)        nn_chunksz      =            0
       IS coupling at the restart step ln_iscpl        =  F
       READ restart for a single file using XIOS ln_xios_read = F
       Write restart using XIOS        nn_wxios   =            0

    ==>>>   Start from rest (ln_rstart=F)
            an Euler initial time step is used : nn_euler is forced to 0 

  ===>>> : W A R N I N G

          ===============

  nn_stock =         6120  it is forced to         3060


    ==>>>   The IOIPSL calendar is "noleap", i.e. no leap year

    Namelist : namdom   ---   space & time domain
       linear free surface (=T)                ln_linssh   =  T
       create mesh/mask file                   ln_meshmask =  T
       treshold to open the isf cavity         rn_isfhmin  =    1.0000000000000000       [m]
       ocean time step                         rn_rdt      =    20.000000000000000     
       asselin time filter parameter           rn_atfp     =   0.10000000000000001     
       online coarsening of dynamical fields   ln_crs      =  F

 dom_hgr : define the horizontal mesh from ithe following par_oce parameters 
 ~~~~~~~   
    namcfg : read (=T) or user defined (=F) configuration    ln_read_cfg  =  F

           User defined horizontal mesh (usr_def_hgr)

 usr_def_hgr : SLOPE configuration bassin
 ~~~~~~~~~~~   uniform grid spacing WITHOUT Coriolis force (f=0)
           Coriolis parameter have been set in usr_def_hgr routine
           u- & v-surfaces calculated as e1 e2 product

 dom_zgr : vertical coordinate
 ~~~~~~~
    linear free surface: the vertical mesh does not change in time

           User defined vertical mesh (usr_def_zgr)

 usr_def_zgr : SLOPE configuration (z(ps)- or s-coordinate closed box ocean without cavities)
 ~~~~~~~~~~~

     zgr_z1d : Reference vertical z-coordinates: uniform dz =    5.0000000000000000     
     ~~~~~~~

               Reference 1D z-coordinate depth and scale factors:
          level  gdept_1d  gdepw_1d  e3t_1d   e3w_1d  
             1     2.50     0.00     5.00     5.00
             2     7.50     5.00     5.00     5.00
             3    12.50    10.00     5.00     5.00
             4    17.50    15.00     5.00     5.00
             5    22.50    20.00     5.00     5.00
             6    27.50    25.00     5.00     5.00
             7    32.50    30.00     5.00     5.00
             8    37.50    35.00     5.00     5.00
             9    42.50    40.00     5.00     5.00
            10    47.50    45.00     5.00     5.00
            11    52.50    50.00     5.00     5.00
            12    57.50    55.00     5.00     5.00
            13    62.50    60.00     5.00     5.00
            14    67.50    65.00     5.00     5.00
            15    72.50    70.00     5.00     5.00
            16    77.50    75.00     5.00     5.00
            17    82.50    80.00     5.00     5.00
            18    87.50    85.00     5.00     5.00
            19    92.50    90.00     5.00     5.00
            20    97.50    95.00     5.00     5.00
            21   102.50   100.00     5.00     5.00
            22   107.50   105.00     5.00     5.00
            23   112.50   110.00     5.00     5.00
            24   117.50   115.00     5.00     5.00
            25   122.50   120.00     5.00     5.00
            26   127.50   125.00     5.00     5.00
            27   132.50   130.00     5.00     5.00
            28   137.50   135.00     5.00     5.00
            29   142.50   140.00     5.00     5.00
            30   147.50   145.00     5.00     5.00
            31   152.50   150.00     5.00     5.00
            32   157.50   155.00     5.00     5.00
            33   162.50   160.00     5.00     5.00
            34   167.50   165.00     5.00     5.00
            35   172.50   170.00     5.00     5.00
            36   177.50   175.00     5.00     5.00
            37   182.50   180.00     5.00     5.00
            38   187.50   185.00     5.00     5.00
            39   192.50   190.00     5.00     5.00
            40   197.50   195.00     5.00     5.00
            41   202.50   200.00     5.00     5.00
            42   207.50   205.00     5.00     5.00
            43   212.50   210.00     5.00     5.00
            44   217.50   215.00     5.00     5.00
            45   222.50   220.00     5.00     5.00
            46   227.50   225.00     5.00     5.00
            47   232.50   230.00     5.00     5.00
            48   237.50   235.00     5.00     5.00
            49   242.50   240.00     5.00     5.00
            50   247.50   245.00     5.00     5.00
            51   252.50   250.00     5.00     5.00
            52   257.50   255.00     5.00     5.00
            53   262.50   260.00     5.00     5.00
            54   267.50   265.00     5.00     5.00
            55   272.50   270.00     5.00     5.00
            56   277.50   275.00     5.00     5.00
            57   282.50   280.00     5.00     5.00
            58   287.50   285.00     5.00     5.00
            59   292.50   290.00     5.00     5.00
            60   297.50   295.00     5.00     5.00
            61   302.50   300.00     5.00     5.00
            62   307.50   305.00     5.00     5.00
            63   312.50   310.00     5.00     5.00
            64   317.50   315.00     5.00     5.00
            65   322.50   320.00     5.00     5.00
            66   327.50   325.00     5.00     5.00
            67   332.50   330.00     5.00     5.00
            68   337.50   335.00     5.00     5.00
            69   342.50   340.00     5.00     5.00
            70   347.50   345.00     5.00     5.00
            71   352.50   350.00     5.00     5.00
            72   357.50   355.00     5.00     5.00
            73   362.50   360.00     5.00     5.00
            74   367.50   365.00     5.00     5.00
            75   372.50   370.00     5.00     5.00
            76   377.50   375.00     5.00     5.00
            77   382.50   380.00     5.00     5.00
            78   387.50   385.00     5.00     5.00
            79   392.50   390.00     5.00     5.00
            80   397.50   395.00     5.00     5.00
            81   402.50   400.00     5.00     5.00
            82   407.50   405.00     5.00     5.00
            83   412.50   410.00     5.00     5.00
            84   417.50   415.00     5.00     5.00
            85   422.50   420.00     5.00     5.00
            86   427.50   425.00     5.00     5.00
            87   432.50   430.00     5.00     5.00
            88   437.50   435.00     5.00     5.00
            89   442.50   440.00     5.00     5.00
            90   447.50   445.00     5.00     5.00
            91   452.50   450.00     5.00     5.00
            92   457.50   455.00     5.00     5.00
            93   462.50   460.00     5.00     5.00
            94   467.50   465.00     5.00     5.00
            95   472.50   470.00     5.00     5.00
            96   477.50   475.00     5.00     5.00
            97   482.50   480.00     5.00     5.00
            98   487.50   485.00     5.00     5.00
            99   492.50   490.00     5.00     5.00
           100   497.50   495.00     5.00     5.00
           101   502.50   500.00     5.00     5.00
           102   507.50   505.00     5.00     5.00
           103   512.50   510.00     5.00     5.00
           104   517.50   515.00     5.00     5.00
           105   522.50   520.00     5.00     5.00
           106   527.50   525.00     5.00     5.00
           107   532.50   530.00     5.00     5.00
           108   537.50   535.00     5.00     5.00
           109   542.50   540.00     5.00     5.00
           110   547.50   545.00     5.00     5.00
           111   552.50   550.00     5.00     5.00
           112   557.50   555.00     5.00     5.00
           113   562.50   560.00     5.00     5.00
           114   567.50   565.00     5.00     5.00
           115   572.50   570.00     5.00     5.00
           116   577.50   575.00     5.00     5.00
           117   582.50   580.00     5.00     5.00
           118   587.50   585.00     5.00     5.00
           119   592.50   590.00     5.00     5.00
           120   597.50   595.00     5.00     5.00
           121   602.50   600.00     5.00     5.00
           122   607.50   605.00     5.00     5.00
           123   612.50   610.00     5.00     5.00
           124   617.50   615.00     5.00     5.00
           125   622.50   620.00     5.00     5.00
           126   627.50   625.00     5.00     5.00
           127   632.50   630.00     5.00     5.00
           128   637.50   635.00     5.00     5.00
           129   642.50   640.00     5.00     5.00
           130   647.50   645.00     5.00     5.00
           131   652.50   650.00     5.00     5.00
           132   657.50   655.00     5.00     5.00
           133   662.50   660.00     5.00     5.00
           134   667.50   665.00     5.00     5.00
           135   672.50   670.00     5.00     5.00
           136   677.50   675.00     5.00     5.00
           137   682.50   680.00     5.00     5.00
           138   687.50   685.00     5.00     5.00
           139   692.50   690.00     5.00     5.00
           140   697.50   695.00     5.00     5.00
           141   702.50   700.00     5.00     5.00
           142   707.50   705.00     5.00     5.00
           143   712.50   710.00     5.00     5.00
           144   717.50   715.00     5.00     5.00
           145   722.50   720.00     5.00     5.00
           146   727.50   725.00     5.00     5.00
           147   732.50   730.00     5.00     5.00
           148   737.50   735.00     5.00     5.00
           149   742.50   740.00     5.00     5.00
           150   747.50   745.00     5.00     5.00
           151   752.50   750.00     5.00     5.00
           152   757.50   755.00     5.00     5.00
           153   762.50   760.00     5.00     5.00
           154   767.50   765.00     5.00     5.00
           155   772.50   770.00     5.00     5.00
           156   777.50   775.00     5.00     5.00
           157   782.50   780.00     5.00     5.00
           158   787.50   785.00     5.00     5.00
           159   792.50   790.00     5.00     5.00
           160   797.50   795.00     5.00     5.00
           161   802.50   800.00     5.00     5.00
           162   807.50   805.00     5.00     5.00
           163   812.50   810.00     5.00     5.00
           164   817.50   815.00     5.00     5.00
           165   822.50   820.00     5.00     5.00
           166   827.50   825.00     5.00     5.00
           167   832.50   830.00     5.00     5.00
           168   837.50   835.00     5.00     5.00
           169   842.50   840.00     5.00     5.00
           170   847.50   845.00     5.00     5.00
           171   852.50   850.00     5.00     5.00
           172   857.50   855.00     5.00     5.00
           173   862.50   860.00     5.00     5.00
           174   867.50   865.00     5.00     5.00
           175   872.50   870.00     5.00     5.00
           176   877.50   875.00     5.00     5.00
           177   882.50   880.00     5.00     5.00
           178   887.50   885.00     5.00     5.00
           179   892.50   890.00     5.00     5.00
           180   897.50   895.00     5.00     5.00
           181   902.50   900.00     5.00     5.00
           182   907.50   905.00     5.00     5.00
           183   912.50   910.00     5.00     5.00
           184   917.50   915.00     5.00     5.00
           185   922.50   920.00     5.00     5.00
           186   927.50   925.00     5.00     5.00
           187   932.50   930.00     5.00     5.00
           188   937.50   935.00     5.00     5.00
           189   942.50   940.00     5.00     5.00
           190   947.50   945.00     5.00     5.00
           191   952.50   950.00     5.00     5.00
           192   957.50   955.00     5.00     5.00
           193   962.50   960.00     5.00     5.00
           194   967.50   965.00     5.00     5.00
           195   972.50   970.00     5.00     5.00
           196   977.50   975.00     5.00     5.00
           197   982.50   980.00     5.00     5.00
           198   987.50   985.00     5.00     5.00
           199   992.50   990.00     5.00     5.00
           200   997.50   995.00     5.00     5.00
           201  1002.50  1000.00     5.00     5.00
           202  1007.50  1005.00     5.00     5.00
           203  1012.50  1010.00     5.00     5.00
           204  1017.50  1015.00     5.00     5.00
           205  1022.50  1020.00     5.00     5.00
           206  1027.50  1025.00     5.00     5.00
           207  1032.50  1030.00     5.00     5.00
           208  1037.50  1035.00     5.00     5.00
           209  1042.50  1040.00     5.00     5.00
           210  1047.50  1045.00     5.00     5.00
           211  1052.50  1050.00     5.00     5.00
           212  1057.50  1055.00     5.00     5.00
           213  1062.50  1060.00     5.00     5.00
           214  1067.50  1065.00     5.00     5.00
           215  1072.50  1070.00     5.00     5.00
           216  1077.50  1075.00     5.00     5.00
           217  1082.50  1080.00     5.00     5.00
           218  1087.50  1085.00     5.00     5.00
           219  1092.50  1090.00     5.00     5.00
           220  1097.50  1095.00     5.00     5.00
           221  1102.50  1100.00     5.00     5.00
           222  1107.50  1105.00     5.00     5.00
           223  1112.50  1110.00     5.00     5.00
           224  1117.50  1115.00     5.00     5.00
           225  1122.50  1120.00     5.00     5.00
           226  1127.50  1125.00     5.00     5.00
           227  1132.50  1130.00     5.00     5.00
           228  1137.50  1135.00     5.00     5.00
           229  1142.50  1140.00     5.00     5.00
           230  1147.50  1145.00     5.00     5.00
           231  1152.50  1150.00     5.00     5.00
           232  1157.50  1155.00     5.00     5.00
           233  1162.50  1160.00     5.00     5.00
           234  1167.50  1165.00     5.00     5.00
           235  1172.50  1170.00     5.00     5.00
           236  1177.50  1175.00     5.00     5.00
           237  1182.50  1180.00     5.00     5.00
           238  1187.50  1185.00     5.00     5.00
           239  1192.50  1190.00     5.00     5.00
           240  1197.50  1195.00     5.00     5.00
           241  1202.50  1200.00     5.00     5.00
           242  1207.50  1205.00     5.00     5.00
           243  1212.50  1210.00     5.00     5.00
           244  1217.50  1215.00     5.00     5.00
           245  1222.50  1220.00     5.00     5.00
           246  1227.50  1225.00     5.00     5.00
           247  1232.50  1230.00     5.00     5.00
           248  1237.50  1235.00     5.00     5.00
           249  1242.50  1240.00     5.00     5.00
           250  1247.50  1245.00     5.00     5.00
           251  1252.50  1250.00     5.00     5.00
           252  1257.50  1255.00     5.00     5.00
           253  1262.50  1260.00     5.00     5.00
           254  1267.50  1265.00     5.00     5.00
           255  1272.50  1270.00     5.00     5.00
           256  1277.50  1275.00     5.00     5.00
           257  1282.50  1280.00     5.00     5.00
           258  1287.50  1285.00     5.00     5.00
           259  1292.50  1290.00     5.00     5.00
           260  1297.50  1295.00     5.00     5.00
           261  1302.50  1300.00     5.00     5.00
           262  1307.50  1305.00     5.00     5.00
           263  1312.50  1310.00     5.00     5.00
           264  1317.50  1315.00     5.00     5.00
           265  1322.50  1320.00     5.00     5.00
           266  1327.50  1325.00     5.00     5.00
           267  1332.50  1330.00     5.00     5.00
           268  1337.50  1335.00     5.00     5.00
           269  1342.50  1340.00     5.00     5.00
           270  1347.50  1345.00     5.00     5.00
           271  1352.50  1350.00     5.00     5.00
           272  1357.50  1355.00     5.00     5.00
           273  1362.50  1360.00     5.00     5.00
           274  1367.50  1365.00     5.00     5.00
           275  1372.50  1370.00     5.00     5.00
           276  1377.50  1375.00     5.00     5.00
           277  1382.50  1380.00     5.00     5.00
           278  1387.50  1385.00     5.00     5.00
           279  1392.50  1390.00     5.00     5.00
           280  1397.50  1395.00     5.00     5.00
           281  1402.50  1400.00     5.00     5.00
           282  1407.50  1405.00     5.00     5.00
           283  1412.50  1410.00     5.00     5.00
           284  1417.50  1415.00     5.00     5.00
           285  1422.50  1420.00     5.00     5.00
           286  1427.50  1425.00     5.00     5.00
           287  1432.50  1430.00     5.00     5.00
           288  1437.50  1435.00     5.00     5.00
           289  1442.50  1440.00     5.00     5.00
           290  1447.50  1445.00     5.00     5.00
           291  1452.50  1450.00     5.00     5.00
           292  1457.50  1455.00     5.00     5.00
           293  1462.50  1460.00     5.00     5.00
           294  1467.50  1465.00     5.00     5.00
           295  1472.50  1470.00     5.00     5.00
           296  1477.50  1475.00     5.00     5.00
           297  1482.50  1480.00     5.00     5.00
           298  1487.50  1485.00     5.00     5.00
           299  1492.50  1490.00     5.00     5.00
           300  1497.50  1495.00     5.00     5.00
           301  1502.50  1500.00     5.00     5.00
           302  1507.50  1505.00     5.00     5.00
           303  1512.50  1510.00     5.00     5.00
           304  1517.50  1515.00     5.00     5.00
           305  1522.50  1520.00     5.00     5.00
           306  1527.50  1525.00     5.00     5.00
           307  1532.50  1530.00     5.00     5.00
           308  1537.50  1535.00     5.00     5.00
           309  1542.50  1540.00     5.00     5.00
           310  1547.50  1545.00     5.00     5.00
           311  1552.50  1550.00     5.00     5.00
           312  1557.50  1555.00     5.00     5.00
           313  1562.50  1560.00     5.00     5.00
           314  1567.50  1565.00     5.00     5.00
           315  1572.50  1570.00     5.00     5.00
           316  1577.50  1575.00     5.00     5.00
           317  1582.50  1580.00     5.00     5.00
           318  1587.50  1585.00     5.00     5.00
           319  1592.50  1590.00     5.00     5.00
           320  1597.50  1595.00     5.00     5.00
           321  1602.50  1600.00     5.00     5.00
           322  1607.50  1605.00     5.00     5.00
           323  1612.50  1610.00     5.00     5.00
           324  1617.50  1615.00     5.00     5.00
           325  1622.50  1620.00     5.00     5.00
           326  1627.50  1625.00     5.00     5.00
           327  1632.50  1630.00     5.00     5.00
           328  1637.50  1635.00     5.00     5.00
           329  1642.50  1640.00     5.00     5.00
           330  1647.50  1645.00     5.00     5.00
           331  1652.50  1650.00     5.00     5.00
           332  1657.50  1655.00     5.00     5.00
           333  1662.50  1660.00     5.00     5.00
           334  1667.50  1665.00     5.00     5.00
           335  1672.50  1670.00     5.00     5.00
           336  1677.50  1675.00     5.00     5.00
           337  1682.50  1680.00     5.00     5.00
           338  1687.50  1685.00     5.00     5.00
           339  1692.50  1690.00     5.00     5.00
           340  1697.50  1695.00     5.00     5.00
           341  1702.50  1700.00     5.00     5.00
           342  1707.50  1705.00     5.00     5.00
           343  1712.50  1710.00     5.00     5.00
           344  1717.50  1715.00     5.00     5.00
           345  1722.50  1720.00     5.00     5.00
           346  1727.50  1725.00     5.00     5.00
           347  1732.50  1730.00     5.00     5.00
           348  1737.50  1735.00     5.00     5.00
           349  1742.50  1740.00     5.00     5.00
           350  1747.50  1745.00     5.00     5.00
           351  1752.50  1750.00     5.00     5.00
           352  1757.50  1755.00     5.00     5.00
           353  1762.50  1760.00     5.00     5.00
           354  1767.50  1765.00     5.00     5.00
           355  1772.50  1770.00     5.00     5.00
           356  1777.50  1775.00     5.00     5.00
           357  1782.50  1780.00     5.00     5.00
           358  1787.50  1785.00     5.00     5.00
           359  1792.50  1790.00     5.00     5.00
           360  1797.50  1795.00     5.00     5.00
           361  1802.50  1800.00     5.00     5.00
           362  1807.50  1805.00     5.00     5.00
           363  1812.50  1810.00     5.00     5.00
           364  1817.50  1815.00     5.00     5.00
           365  1822.50  1820.00     5.00     5.00
           366  1827.50  1825.00     5.00     5.00
           367  1832.50  1830.00     5.00     5.00
           368  1837.50  1835.00     5.00     5.00
           369  1842.50  1840.00     5.00     5.00
           370  1847.50  1845.00     5.00     5.00
           371  1852.50  1850.00     5.00     5.00
           372  1857.50  1855.00     5.00     5.00
           373  1862.50  1860.00     5.00     5.00
           374  1867.50  1865.00     5.00     5.00
           375  1872.50  1870.00     5.00     5.00
           376  1877.50  1875.00     5.00     5.00
           377  1882.50  1880.00     5.00     5.00
           378  1887.50  1885.00     5.00     5.00
           379  1892.50  1890.00     5.00     5.00
           380  1897.50  1895.00     5.00     5.00
           381  1902.50  1900.00     5.00     5.00
           382  1907.50  1905.00     5.00     5.00
           383  1912.50  1910.00     5.00     5.00
           384  1917.50  1915.00     5.00     5.00
           385  1922.50  1920.00     5.00     5.00
           386  1927.50  1925.00     5.00     5.00
           387  1932.50  1930.00     5.00     5.00
           388  1937.50  1935.00     5.00     5.00
           389  1942.50  1940.00     5.00     5.00
           390  1947.50  1945.00     5.00     5.00
           391  1952.50  1950.00     5.00     5.00
           392  1957.50  1955.00     5.00     5.00
           393  1962.50  1960.00     5.00     5.00
           394  1967.50  1965.00     5.00     5.00
           395  1972.50  1970.00     5.00     5.00
           396  1977.50  1975.00     5.00     5.00
           397  1982.50  1980.00     5.00     5.00
           398  1987.50  1985.00     5.00     5.00
           399  1992.50  1990.00     5.00     5.00
           400  1997.50  1995.00     5.00     5.00
           401  2002.50  2000.00     5.00     5.00

 clo_bat : suppression of closed seas
 ~~~~~~~
 No domain_cfg file => no suppression of closed seas.

    Type of vertical coordinate (read in domain_cfg file or set in userdef_nam) :
       z-coordinate - full steps      ln_zco    =  T
       z-coordinate - partial steps   ln_zps    =  F
       s- or hybrid z-s-coordinate    ln_sco    =  F
       ice shelf cavities             ln_isfcav =  F

     zgr_top_bot : ocean top and bottom k-index of T-, U-, V- and W-levels 
     ~~~~~~~~~~~

 dommsk : ocean mask 
 ~~~~~~
    Namelist namlbc
       lateral momentum boundary cond.    rn_shlat  =    0.0000000000000000     
       consistency with analytical form   ln_vorlat =  F

    ==>>>   ocean lateral  free-slip

 usr_def_fmask : NO alteration of fmask in specific straits 
 ~~~~~~~~~~~~~

 dom_wri : create NetCDF mesh and mask information file(s)
 ~~~~~~~
                     iom_nf90_open ~~~ create new file: mesh_mask_0000.nc in WRITE mode
                    ---> mesh_mask_0000.nc OK
           iom_nf90_rp0123d, file: mesh_mask_0000.nc, var: jpiglo define dimension variables done
           iom_nf90_rp0123d, file: mesh_mask_0000.nc, var: jpiglo defined ok
           iom_nf90_rp0123d, file: mesh_mask_0000.nc, var: jpiglo written ok
           iom_nf90_rp0123d, file: mesh_mask_0000.nc, var: jpjglo defined ok
           iom_nf90_rp0123d, file: mesh_mask_0000.nc, var: jpjglo written ok
           iom_nf90_rp0123d, file: mesh_mask_0000.nc, var: jpkglo defined ok
           iom_nf90_rp0123d, file: mesh_mask_0000.nc, var: jpkglo written ok
           iom_nf90_rp0123d, file: mesh_mask_0000.nc, var: jperio defined ok
           iom_nf90_rp0123d, file: mesh_mask_0000.nc, var: jperio written ok
           iom_nf90_rp0123d, file: mesh_mask_0000.nc, var: ln_zco defined ok
           iom_nf90_rp0123d, file: mesh_mask_0000.nc, var: ln_zco written ok
           iom_nf90_rp0123d, file: mesh_mask_0000.nc, var: ln_zps defined ok
           iom_nf90_rp0123d, file: mesh_mask_0000.nc, var: ln_zps written ok
           iom_nf90_rp0123d, file: mesh_mask_0000.nc, var: ln_sco defined ok
           iom_nf90_rp0123d, file: mesh_mask_0000.nc, var: ln_sco written ok
           iom_nf90_rp0123d, file: mesh_mask_0000.nc, var: ln_isfcav defined ok
           iom_nf90_rp0123d, file: mesh_mask_0000.nc, var: ln_isfcav written ok
           iom_nf90_rp0123d, file: mesh_mask_0000.nc, var: tmask defined ok
           iom_nf90_rp0123d, file: mesh_mask_0000.nc, var: tmask write dimension variables done
           iom_nf90_rp0123d, file: mesh_mask_0000.nc, var: tmask written ok
           iom_nf90_rp0123d, file: mesh_mask_0000.nc, var: umask defined ok
           iom_nf90_rp0123d, file: mesh_mask_0000.nc, var: umask written ok
           iom_nf90_rp0123d, file: mesh_mask_0000.nc, var: vmask defined ok
           iom_nf90_rp0123d, file: mesh_mask_0000.nc, var: vmask written ok
           iom_nf90_rp0123d, file: mesh_mask_0000.nc, var: fmask defined ok
           iom_nf90_rp0123d, file: mesh_mask_0000.nc, var: fmask written ok
           iom_nf90_rp0123d, file: mesh_mask_0000.nc, var: tmaskutil defined ok
           iom_nf90_rp0123d, file: mesh_mask_0000.nc, var: tmaskutil written ok
           iom_nf90_rp0123d, file: mesh_mask_0000.nc, var: umaskutil defined ok
           iom_nf90_rp0123d, file: mesh_mask_0000.nc, var: umaskutil written ok
           iom_nf90_rp0123d, file: mesh_mask_0000.nc, var: vmaskutil defined ok
           iom_nf90_rp0123d, file: mesh_mask_0000.nc, var: vmaskutil written ok
           iom_nf90_rp0123d, file: mesh_mask_0000.nc, var: glamt defined ok
           iom_nf90_rp0123d, file: mesh_mask_0000.nc, var: glamt written ok
           iom_nf90_rp0123d, file: mesh_mask_0000.nc, var: glamu defined ok
           iom_nf90_rp0123d, file: mesh_mask_0000.nc, var: glamu written ok
           iom_nf90_rp0123d, file: mesh_mask_0000.nc, var: glamv defined ok
           iom_nf90_rp0123d, file: mesh_mask_0000.nc, var: glamv written ok
           iom_nf90_rp0123d, file: mesh_mask_0000.nc, var: glamf defined ok
           iom_nf90_rp0123d, file: mesh_mask_0000.nc, var: glamf written ok
           iom_nf90_rp0123d, file: mesh_mask_0000.nc, var: gphit defined ok
           iom_nf90_rp0123d, file: mesh_mask_0000.nc, var: gphit written ok
           iom_nf90_rp0123d, file: mesh_mask_0000.nc, var: gphiu defined ok
           iom_nf90_rp0123d, file: mesh_mask_0000.nc, var: gphiu written ok
           iom_nf90_rp0123d, file: mesh_mask_0000.nc, var: gphiv defined ok
           iom_nf90_rp0123d, file: mesh_mask_0000.nc, var: gphiv written ok
           iom_nf90_rp0123d, file: mesh_mask_0000.nc, var: gphif defined ok
           iom_nf90_rp0123d, file: mesh_mask_0000.nc, var: gphif written ok
           iom_nf90_rp0123d, file: mesh_mask_0000.nc, var: e1t defined ok
           iom_nf90_rp0123d, file: mesh_mask_0000.nc, var: e1t written ok
           iom_nf90_rp0123d, file: mesh_mask_0000.nc, var: e1u defined ok
           iom_nf90_rp0123d, file: mesh_mask_0000.nc, var: e1u written ok
           iom_nf90_rp0123d, file: mesh_mask_0000.nc, var: e1v defined ok
           iom_nf90_rp0123d, file: mesh_mask_0000.nc, var: e1v written ok
           iom_nf90_rp0123d, file: mesh_mask_0000.nc, var: e1f defined ok
           iom_nf90_rp0123d, file: mesh_mask_0000.nc, var: e1f written ok
           iom_nf90_rp0123d, file: mesh_mask_0000.nc, var: e2t defined ok
           iom_nf90_rp0123d, file: mesh_mask_0000.nc, var: e2t written ok
           iom_nf90_rp0123d, file: mesh_mask_0000.nc, var: e2u defined ok
           iom_nf90_rp0123d, file: mesh_mask_0000.nc, var: e2u written ok
           iom_nf90_rp0123d, file: mesh_mask_0000.nc, var: e2v defined ok
           iom_nf90_rp0123d, file: mesh_mask_0000.nc, var: e2v written ok
           iom_nf90_rp0123d, file: mesh_mask_0000.nc, var: e2f defined ok
           iom_nf90_rp0123d, file: mesh_mask_0000.nc, var: e2f written ok
           iom_nf90_rp0123d, file: mesh_mask_0000.nc, var: ff_f defined ok
           iom_nf90_rp0123d, file: mesh_mask_0000.nc, var: ff_f written ok
           iom_nf90_rp0123d, file: mesh_mask_0000.nc, var: ff_t defined ok
           iom_nf90_rp0123d, file: mesh_mask_0000.nc, var: ff_t written ok
           iom_nf90_rp0123d, file: mesh_mask_0000.nc, var: mbathy defined ok
           iom_nf90_rp0123d, file: mesh_mask_0000.nc, var: mbathy written ok
           iom_nf90_rp0123d, file: mesh_mask_0000.nc, var: misf defined ok
           iom_nf90_rp0123d, file: mesh_mask_0000.nc, var: misf written ok
           iom_nf90_rp0123d, file: mesh_mask_0000.nc, var: isfdraft defined ok
           iom_nf90_rp0123d, file: mesh_mask_0000.nc, var: isfdraft written ok
           iom_nf90_rp0123d, file: mesh_mask_0000.nc, var: e3t_1d defined ok
           iom_nf90_rp0123d, file: mesh_mask_0000.nc, var: e3t_1d written ok
           iom_nf90_rp0123d, file: mesh_mask_0000.nc, var: e3w_1d defined ok
           iom_nf90_rp0123d, file: mesh_mask_0000.nc, var: e3w_1d written ok
           iom_nf90_rp0123d, file: mesh_mask_0000.nc, var: e3t_0 defined ok
           iom_nf90_rp0123d, file: mesh_mask_0000.nc, var: e3t_0 written ok
           iom_nf90_rp0123d, file: mesh_mask_0000.nc, var: e3u_0 defined ok
           iom_nf90_rp0123d, file: mesh_mask_0000.nc, var: e3u_0 written ok
           iom_nf90_rp0123d, file: mesh_mask_0000.nc, var: e3v_0 defined ok
           iom_nf90_rp0123d, file: mesh_mask_0000.nc, var: e3v_0 written ok
           iom_nf90_rp0123d, file: mesh_mask_0000.nc, var: e3f_0 defined ok
           iom_nf90_rp0123d, file: mesh_mask_0000.nc, var: e3f_0 written ok
           iom_nf90_rp0123d, file: mesh_mask_0000.nc, var: e3w_0 defined ok
           iom_nf90_rp0123d, file: mesh_mask_0000.nc, var: e3w_0 written ok
           iom_nf90_rp0123d, file: mesh_mask_0000.nc, var: e3uw_0 defined ok
           iom_nf90_rp0123d, file: mesh_mask_0000.nc, var: e3uw_0 written ok
           iom_nf90_rp0123d, file: mesh_mask_0000.nc, var: e3vw_0 defined ok
           iom_nf90_rp0123d, file: mesh_mask_0000.nc, var: e3vw_0 written ok
           iom_nf90_rp0123d, file: mesh_mask_0000.nc, var: gdept_1d defined ok
           iom_nf90_rp0123d, file: mesh_mask_0000.nc, var: gdept_1d written ok
           iom_nf90_rp0123d, file: mesh_mask_0000.nc, var: gdepw_1d defined ok
           iom_nf90_rp0123d, file: mesh_mask_0000.nc, var: gdepw_1d written ok
           iom_nf90_rp0123d, file: mesh_mask_0000.nc, var: gdept_0 defined ok
           iom_nf90_rp0123d, file: mesh_mask_0000.nc, var: gdept_0 written ok
           iom_nf90_rp0123d, file: mesh_mask_0000.nc, var: gdepw_0 defined ok
           iom_nf90_rp0123d, file: mesh_mask_0000.nc, var: gdepw_0 written ok
                     iom_close ~~~ close file: mesh_mask_0000.nc ok

 dom_ctl : extrema of the masked scale factors
 ~~~~~~~
              e1t maxi:     250.00 at i =     2 j=     2
              e1t mini:     250.00 at i =     2 j=     2
              e2t maxi:     250.00 at i =     2 j=     2
              e2t mini:     250.00 at i =     2 j=     2

 dom_init :   ==>>>   END of domain initialization
 ~~~~~~~~


 istate_init : Initialization of the dynamics and tracers
 ~~~~~~~~~~~

 dta_tsd_init : Temperature & Salinity data 
 ~~~~~~~~~~~~ 
    Namelist namtsd
       Initialisation of ocean T & S with T &S input data   ln_tsd_init =  F
       damping of ocean T & S toward T &S input data        ln_tsd_dmp  =  F


    ===>>   T & S data not used
  *** Info used values : 
    date ndastp                                      :        10100
    number of elapsed days since the begining of run :    0.0000000000000000     
    nn_time0                                         :            0

 =======>> 1/2 time step before the start of the run DATE Y/M/D =      0/12/31  nsec_day:   86390  nsec_week:  431990                     nsec_month: 2678390  nsec_year:31535990
======>> time-step =       1      New day, DATE Y/M/D = 0001/01/01      nday_year = 001
         nsec_year =       10   nsec_month =      10   nsec_day =    10
   nsec_week =   432010

 usr_def_istate : SLOPE configuration, analytical definition of initial state
 ~~~~~~~~~~~~~~   Ocean at rest, with a constant salinity (not used as rho=F(T) 
                  and a vertical density front with a 2 kg/m3 difference located at glam=20km
                  (i.e. a temperature difference of 10 degrees with rn_a0 = 0.2

 tide_init : tidal components not used (ln_tide = F)
 ~~~~~~~~~ 

 sbc_init : surface boundary condition setting
 ~~~~~~~~ 
    Namelist namsbc (partly overwritten with CPP key setting)
       frequency update of sbc (and ice)             nn_fsbc       =            1
       Type of air-sea fluxes : 
          user defined formulation                   ln_usr        =  T
          flux         formulation                   ln_flx        =  F
          bulk         formulation                   ln_blk        =  F
       Type of coupling (Ocean/Ice/Atmosphere) : 
          ocean-atmosphere coupled formulation       ln_cpl        =  F
          mixed forced-coupled     formulation       ln_mixcpl     =  F
          OASIS coupling (with atm or sas)           lk_oasis      =  F
          components of your executable              nn_components =            0
       Sea-ice : 
          ice management in the sbc (=0/1/2/3)       nn_ice        =            0
          ice embedded into ocean                    ln_ice_embd   =  F
       Misc. options of sbc : 
          Light penetration in temperature Eq.       ln_traqsr     =  F
             daily mean to diurnal cycle qsr            ln_dm2dc   =  F
          Sea Surface Restoring on SST and/or SSS    ln_ssr        =  F
          FreshWater Budget control  (=0/1/2)        nn_fwb        =            0
          Patm gradient added in ocean & ice Eqs.    ln_apr_dyn    =  F
          runoff / runoff mouths                     ln_rnf        =  F
          iceshelf formulation                       ln_isf        =  F
          nb of iterations if land-sea-mask applied  nn_lsm        =            0
          surface wave                               ln_wave       =  F
                Stokes drift corr. to vert. velocity ln_sdw        =  F
                   vertical parametrization          nn_sdrift     =            0
                wave modified ocean stress           ln_tauwoc     =  F
                wave modified ocean stress component ln_tauw       =  F
                Stokes coriolis term                 ln_stcor      =  F
                neutral drag coefficient (CORE,NCAR) ln_cdgw       =  F

    ==>>>   NEMO configured as a single executable (i.e. including both OPA and Surface module)

    ==>>>   user defined forcing formulation

 sbc_ssm_init : sea surface mean fields, nn_fsbc=1 : instantaneous values
 ~~~~~~~~~~~ 
    default initialisation of ss._m arrays

 bdy_init : open boundaries not used (ln_bdy = F)
 ~~~~~~~~

 zdf_phy_init: ocean vertical physics
 ~~~~~~~~~~~~
    Namelist namzdf : set vertical mixing mixing parameters
       adaptive-implicit vertical advection
          Courant number targeted application   ln_zad_Aimp =  T
       vertical closure scheme
          constant vertical mixing coefficient    ln_zdfcst =  T
          Richardson number dependent closure     ln_zdfric =  F
          Turbulent Kinetic Energy closure (TKE)  ln_zdftke =  F
          Generic Length Scale closure (GLS)      ln_zdfgls =  F
          OSMOSIS-OBL closure (OSM)               ln_zdfosm =  F
       convection: 
          enhanced vertical diffusion             ln_zdfevd =  F
             applied on momentum (=1/0)             nn_evdm =            0
             vertical coefficient for evd           rn_evd  =    100.00000000000000     
          non-penetrative convection (npc)        ln_zdfnpc =  F
             npc call  frequency                    nn_npc  =            1
             npc print frequency                    nn_npcp =          365
       double diffusive mixing                    ln_zdfddm =  F
          maximum avs for dd mixing                 rn_avts =    1.0000000000000000E-004
          heat/salt buoyancy flux ratio             rn_hsbfr=    1.6000000000000001     
       gravity wave-induced mixing
          surface  wave (Qiao et al 2010)         ln_zdfswm =  F
          internal wave (de Lavergne et al 2017)  ln_zdfiwm =  F
       coefficients : 
          vertical eddy viscosity                 rn_avm0   =    1.0000000000000000E-008
          vertical eddy diffusivity               rn_avt0   =    0.0000000000000000     
          constant background or profile          nn_avb    =            0
          horizontal variation for avtb           nn_havtb  =            0

    ==>>>   convection: no specific scheme used

    ==>>>   No  double diffusive mixing: avs = avt

 zdf_drg_init : top and/or bottom drag setting
 ~~~~~~~~~~~~
    Namelist namdrg : top/bottom friction choices
       free-slip       : Cd = 0                  ln_OFF      =  T
       linear  drag    : Cd = Cd0                ln_lin      =  F
       non-linear  drag: Cd = Cd0_nl |U|         ln_non_lin  =  F
       logarithmic drag: Cd = vkarmn/log(z/z0)   ln_loglayer =  F
       implicit friction                         ln_drgimp   =  T

    Namelist namdrg_bot : set BOTTOM friction parameters
       drag coefficient                        rn_Cd0   =    1.0000000000000000E-003
       characteristic velocity (linear case)   rn_Uc0   =   0.40000000000000002       m/s
       non-linear drag maximum                 rn_Cdmax =   0.10000000000000001     
       background kinetic energy  (n-l case)   rn_ke0   =    2.5000000000000001E-003
       bottom roughness           (n-l case)   rn_z0    =    3.0000000000000001E-003
       set a regional boost of Cd0             ln_boost =  F
          associated boost factor              rn_boost =    50.000000000000000     

    ==>>>   BOTTOM free-slip, friction set to zero

 ldf_tra_init : lateral tracer diffusion
 ~~~~~~~~~~~~ 
    Namelist : namtra_ldf --- lateral mixing parameters (type, direction, coefficients)
       type :
          no explicit diffusion                   ln_traldf_OFF   =  T
          laplacian operator                      ln_traldf_lap   =  F
          bilaplacian operator                    ln_traldf_blp   =  F
       direction of action :
          iso-level                               ln_traldf_lev   =  F
          horizontal (geopotential)               ln_traldf_hor   =  F
          iso-neutral Madec operator              ln_traldf_iso   =  F
          iso-neutral triad operator              ln_traldf_triad =  F
             use the Method of Stab. Correction   ln_traldf_msc   =  F
             maximum isoppycnal slope             rn_slpmax       =    1.0000000000000000E-002
             pure lateral mixing in ML            ln_triad_iso    =  F
             switching triad or not               rn_sw_triad     =    1.0000000000000000     
             lateral mixing on bottom             ln_botmix_triad =  F
       coefficients :
          type of time-space variation            nn_aht_ijk_t    =            0
             lateral diffusive velocity (if cst)  rn_Ud           =    1.0000000000000000E-002  m/s
             lateral diffusive length   (if cst)  rn_Ld           =    200000.00000000000       m

    ==>>>   NO lateral diffusion

    ==>>>   No diffusive operator selected. ahtu and ahtv are not allocated

 ldf_eiv_init : eddy induced velocity parametrization
 ~~~~~~~~~~~~ 
    Namelist namtra_eiv : 
       Eddy Induced Velocity (eiv) param.         ln_ldfeiv     =  F
       eiv streamfunction & velocity diag.        ln_ldfeiv_dia =  F
       coefficients :
          type of time-space variation            nn_aei_ijk_t  =            0
          lateral diffusive velocity (if cst)     rn_Ue         =    2.0000000000000000E-002  m/s
          lateral diffusive length   (if cst)     rn_Le         =    200000.00000000000       m

    ==>>>   eddy induced velocity param is NOT used

 ldf_dyn : lateral momentum physics
 ~~~~~~~
    Namelist namdyn_ldf : set lateral mixing parameters
       type :
          no explicit diffusion                ln_dynldf_OFF =  T
          laplacian operator                   ln_dynldf_lap =  F
          bilaplacian operator                 ln_dynldf_blp =  F
       direction of action :
          iso-level                            ln_dynldf_lev =  F
          horizontal (geopotential)            ln_dynldf_hor =  F
          iso-neutral                          ln_dynldf_iso =  F
       coefficients :
          type of time-space variation         nn_ahm_ijk_t  =            0
          lateral viscous velocity  (if cst)      rn_Uv      =    2.0000000000000000       m/s
          lateral viscous length    (if cst)      rn_Lv      =    1000.0000000000000       m
          background viscosity (iso-lap case)     rn_ahm_b   =    0.0000000000000000       m2/s
       Smagorinsky settings (nn_ahm_ijk_t  = 32) :
          Smagorinsky coefficient              rn_csmc       =    3.5000000000000000     
          factor multiplier for eddy visc.
             lower limit (default 1.0)         rn_minfac    =    1.0000000000000000     
             upper limit (default 1.0)         rn_maxfac    =    1.0000000000000000     

    ==>>>   NO lateral viscosity

    ==>>>   No viscous operator selected. ahmt and ahmf are not allocated

 tra_bbc : Bottom Boundary Condition (bbc), apply a Geothermal heating
 ~~~~~~~   
    Namelist nambbc : set bbc parameters
       Apply a geothermal heating at ocean bottom   ln_trabbc     =  F
       type of geothermal flux                      nn_geoflx     =            2
       Constant geothermal flux value               rn_geoflx_cst =    8.6400000000000005E-002

    ==>>>   no geothermal heat flux

 tra_bbl_init : bottom boundary layer initialisation
 ~~~~~~~~~~~~
        Namelist nambbl : set bbl parameters
           bottom boundary layer flag          ln_trabbl  =  F

 tra_dmp_init : T and S newtonian relaxation
 ~~~~~~~~~~~~
    Namelist namtra_dmp : set relaxation parameters
       Apply relaxation   or not       ln_tradmp   =  F
          mixed layer damping option      nn_zdmp  =            0
          Damping file name               cn_resto = resto.nc                                                                                                                                                                                                


 tra_adv_init : choice/control of the tracer advection scheme
 ~~~~~~~~~~~~
    Namelist namtra_adv : chose a advection scheme for tracers
       No advection on T & S                     ln_traadv_OFF =  F
       centered scheme                           ln_traadv_cen =  F
             horizontal 2nd/4th order               nn_cen_h   =            4
             vertical   2nd/4th order               nn_cen_v   =            4
       Flux Corrected Transport scheme           ln_traadv_fct =  T
             horizontal 2nd/4th order               nn_fct_h   =            4
             vertical   2nd/4th order               nn_fct_v   =            4
       MUSCL scheme                              ln_traadv_mus =  F
             + upstream scheme near river mouths    ln_mus_ups =  F
       UBS scheme                                ln_traadv_ubs =  F
             vertical   2nd/4th order               nn_ubs_v   =            2
       QUICKEST scheme                           ln_traadv_qck =  F

    ==>>>   FCT      scheme is used. Horizontal order:            4  Vertical   order:            4

 tra_mle_init : mixed layer eddy (MLE) advection acting on tracers
 ~~~~~~~~~~~~~
    Namelist namtra_mle : mixed layer eddy advection applied on tracers
       use mixed layer eddy (MLE, i.e. Fox-Kemper param) (T/F)      ln_mle       =  F
          MLE type: =0 standard Fox-Kemper ; =1 new formulation        nn_mle    =            1
          magnitude of the MLE (typical value: 0.06 to 0.08)           rn_ce     =    5.9999999999999998E-002
          scale of ML front (ML radius of deformation) (rn_mle=0)      rn_lf     =    5000.0000000000000      m
          maximum time scale of MLE                    (rn_mle=0)      rn_time   =    172800.00000000000      s
          reference latitude (degrees) of MLE coef.    (rn_mle=1)      rn_lat    =    20.000000000000000      deg
          space interp. of MLD at u-(v-)pts (0=min,1=averaged,2=max)   nn_mld_uv =            0
          =1 no MLE in case of convection ; =0 always MLE              nn_conv   =            0
          Density difference used to define ML for FK              rn_rho_c_mle  =    1.0000000000000000E-002

    ==>>>   Mixed Layer Eddy parametrisation NOT used

 tra_ldf_init : lateral tracer diffusive operator
 ~~~~~~~~~~~~
    Namelist namtra_ldf: already read in ldftra module
       see ldf_tra_init report for lateral mixing parameters

    ==>>>   NO lateral diffusion

 dyn_adv_init : choice/control of the momentum advection scheme
 ~~~~~~~~~~~~
    Namelist namdyn_adv : chose a advection formulation & scheme for momentum
       linear dynamics : no momentum advection          ln_dynadv_OFF  =  F
       Vector form: 2nd order centered scheme           ln_dynadv_vec  =  F
          with Hollingsworth scheme (=1) or not (=0)       nn_dynkeg   =            0
       flux form: 2nd order centred scheme              ln_dynadv_cen2 =  F
                  3rd order UBS scheme                  ln_dynadv_ubs  =  T

    ==>>>   flux form   : UBS       scheme is used

 dyn_vor_init : vorticity term : read namelist and control the consistency
 ~~~~~~~~~~~~
    Namelist namdyn_vor : choice of the vorticity term scheme
       enstrophy conserving scheme                    ln_dynvor_ens =  T
       f-point energy conserving scheme               ln_dynvor_ene =  F
       t-point energy conserving scheme               ln_dynvor_enT =  F
       energy conserving scheme  (een using e3t)      ln_dynvor_eeT =  F
       enstrophy and energy conserving scheme         ln_dynvor_een =  F
          e3f = averaging /4 (=0) or /sum(tmask) (=1)    nn_een_e3f =            0
       mixed enstrophy/energy conserving scheme       ln_dynvor_mix =  F
       masked (=T) or unmasked(=F) vorticity          ln_dynvor_msk =  F

       change fmask value in the angles (T)           ln_vorlat =  F

    ==>>>   flux form dynamics : total vorticity = Coriolis + metric term

    ==>>>   enstrophy conserving scheme (ENS)

 dyn_ldf_init : Choice of the lateral diffusive operator on dynamics
 ~~~~~~~~~~~~
    Namelist namdyn_ldf: already read in ldfdyn module
       see ldf_dyn_init report for lateral mixing parameters

    ==>>>   NO lateral viscosity

 dyn_hpg_init : hydrostatic pressure gradient initialisation
 ~~~~~~~~~~~~
    Namelist namdyn_hpg : choice of hpg scheme
       z-coord. - full steps                             ln_hpg_zco    =  F
       z-coord. - partial steps (interpolation)          ln_hpg_zps    =  F
       s-coord. (standard jacobian formulation)          ln_hpg_sco    =  T
       s-coord. (standard jacobian formulation) for isf  ln_hpg_isf    =  F
       s-coord. (Density Jacobian: Cubic polynomial)     ln_hpg_djc    =  F
       s-coord. (Pressure Jacobian: Cubic polynomial)    ln_hpg_prj    =  F

    ==>>>   s-coord. (standard jacobian formulation)


 dyn_spg_init : choice of the surface pressure gradient scheme
 ~~~~~~~~~~~~
    Namelist : namdyn_spg                    
       Explicit free surface                  ln_dynspg_exp =  F
       Free surface with time splitting       ln_dynspg_ts  =  T

    ==>>>   free surface with time splitting scheme

 dyn_spg_ts_init : split-explicit free surface
 ~~~~~~~~~~~~~~~
      ln_ts_auto =.true. Automatically set nn_baro 
      Max. courant number allowed:   0.80000000000000004     
      ln_bt_av =.true.  ==> Time averaging over nn_baro time steps is on 
      ln_bt_fw=.true.  => Forward integration of barotropic variables 
      Time filter choice, nn_bt_flt:            1
            Boxcar: width = nn_baro
  
      nn_baro =           20
      Barotropic time step [s] is :   1.0000000000000000     
      Maximum Courant number is   :  0.79222824993810959     
      Time diffusion parameter rn_bt_alpha:    0.0000000000000000     

    ==>>>   start from rest: set barotropic values to 0

 icb_nam : iceberg initialization through namberg namelist read
 ~~~~~~~~ 

    ==>>>   No icebergs used

 sto_par_init : NO use of stochastic parameterization
 ~~~~~~~~~~~~

 flo_stp : call floats routine 
 ~~~~~~~

          Namelist floats :
             Activate floats or not                   ln_floats    =  F
                number of floats                      jpnfl        =            1
                number of new floats                  jpnflnewflo  =            0
                restart                               ln_rstflo    =  F
                frequency of float output file        nn_writefl   =           75
                frequency of float restart file       nn_stockfl   =         5475
                Argo type floats                      ln_argo      =  F
                Computation of T trajectories         ln_flork4    =  F
                Use of ariane convention              ln_ariane    =  T
                ascii output (T) or netcdf output (F) ln_flo_ascii =  T

 dia_ptr_init : poleward transport and msf initialization
 ~~~~~~~~~~~~
    Namelist namptr : set ptr parameters
       Poleward heat & salt transport (T) or not (F)      ln_diaptr  =  F
       Global (F) or glo/Atl/Pac/Ind/Indo-Pac basins      ln_subbas  =  F
  
 diadct_init: compute transports through sections 
 ~~~~~~~~~~~~~~~~~~~~~
        Calculate transport thru sections: ln_diadct =  F
        Frequency of computation:          nn_dct    =           15
        Frequency of write:                nn_dctwri =           15
        Debug section number:          112

 dia_hsb_init : heat and salt budgets diagnostics
 ~~~~~~~~~~~~ 
    Namelist  namhsb :
       check the heat and salt budgets (T) or not (F)       ln_diahsb =  F

 trd_init : Momentum/Tracers trends
 ~~~~~~~~
    Namelist namtrd : set trends parameters
       global domain averaged dyn & tra trends   ln_glo_trd  =  F
       U & V trends: 3D output                   ln_dyn_trd  =  F
       U & V trends: Mixed Layer averaged        ln_dyn_mxl  =  F
       T & S trends: 3D output                   ln_tra_trd  =  F
       T & S trends: Mixed Layer averaged        ln_tra_mxl  =  F
       Kinetic   Energy trends                   ln_KE_trd   =  F
       Potential Energy trends                   ln_PE_trd   =  F
       Barotropic vorticity trends               ln_vor_trd  =  F
       frequency of trends diagnostics (glo)     nn_trd      =          365

 dia_obs_init : NO Observation diagnostic used
 ~~~~~~~~~~~~

 dia_tmb_init : Output Top, Middle, Bottom Diagnostics
 ~~~~~~~~~~~~
    Namelist nam_diatmb : set tmb outputs 
       Switch for TMB diagnostics (T) or not (F)  ln_diatmb  =  F

 dia_25h_init : Output 25 hour mean diagnostics
 ~~~~~~~~~~~~
    Namelist nam_dia25h : set 25h outputs 
       Switch for 25h diagnostics (T) or not (F)  ln_dia25h  =  F

 dia_harm_init: Tidal harmonic analysis initialization
 ~~~~~~~ 
 Tidal diagnostics =  F
    First time step used for analysis:         nit000_han=            1
    Last  time step used for analysis:         nitend_han=           75
    Time step frequency for harmonic analysis: nstep_han =           15

AAAAAAAA


AAAAAAAA

  usr_sbc : SLOPE case: NO surface forcing
  ~~~~~~~~~~~   utau = vtau = taum = wndm = qns = qsr = emp = sfx = 0
           nit000-1 surface forcing fields set to nit000

 zdf_mxl : mixed layer depth
 ~~~~~~~ 

 ssh_nxt : after sea surface height
 ~~~~~~~ 

 div_hor : horizontal velocity divergence 
 ~~~~~~~   

 wzv : now vertical velocity 
 ~~~~~ 

 wAimp : Courant number-based partitioning of now vertical velocity 
 ~~~~~ 

 dyn_adv_ubs : UBS flux form momentum advection
 ~~~~~~~~~~~

 dyn:vor_ens : vorticity term: enstrophy conserving scheme
 ~~~~~~~~~~~

 dyn:hpg_sco : hydrostatic pressure gradient trend
 ~~~~~~~~~~~   s-coordinate case, OPA original scheme used

 dyn_spg_ts : surface pressure gradient trend
 ~~~~~~~~~~   free surface with time splitting


 div_hor : horizontal velocity divergence 
 ~~~~~~~   

 dyn_zdf_imp : vertical momentum diffusion implicit operator
 ~~~~~~~~~~~ 

 wzv : now vertical velocity 
 ~~~~~ 

 wAimp : Courant number-based partitioning of now vertical velocity 
 ~~~~~ 

 dia_wri_state : single instantaneous ocean state
 ~~~~~~~~~~~~~   and forcing fields file created 
                 and named :output.init...nc
                     iom_nf90_open ~~~ create new file: output.init_0000.nc in WRITE mode
                    ---> output.init_0000.nc OK
           iom_nf90_rp0123d, file: output.init_0000.nc, var: votemper define dimension variables done
           iom_nf90_rp0123d, file: output.init_0000.nc, var: votemper defined ok
           iom_nf90_rp0123d, file: output.init_0000.nc, var: votemper write dimension variables done
           iom_nf90_rp0123d, file: output.init_0000.nc, var: votemper written ok
           iom_nf90_rp0123d, file: output.init_0000.nc, var: vosaline defined ok
           iom_nf90_rp0123d, file: output.init_0000.nc, var: vosaline written ok
           iom_nf90_rp0123d, file: output.init_0000.nc, var: sossheig defined ok
           iom_nf90_rp0123d, file: output.init_0000.nc, var: sossheig written ok
           iom_nf90_rp0123d, file: output.init_0000.nc, var: vozocrtx defined ok
           iom_nf90_rp0123d, file: output.init_0000.nc, var: vozocrtx written ok
           iom_nf90_rp0123d, file: output.init_0000.nc, var: vomecrty defined ok
           iom_nf90_rp0123d, file: output.init_0000.nc, var: vomecrty written ok
           iom_nf90_rp0123d, file: output.init_0000.nc, var: vovecrtz defined ok
           iom_nf90_rp0123d, file: output.init_0000.nc, var: vovecrtz written ok
           iom_nf90_rp0123d, file: output.init_0000.nc, var: sowaflup defined ok
           iom_nf90_rp0123d, file: output.init_0000.nc, var: sowaflup written ok
           iom_nf90_rp0123d, file: output.init_0000.nc, var: sohefldo defined ok
           iom_nf90_rp0123d, file: output.init_0000.nc, var: sohefldo written ok
           iom_nf90_rp0123d, file: output.init_0000.nc, var: soshfldo defined ok
           iom_nf90_rp0123d, file: output.init_0000.nc, var: soshfldo written ok
           iom_nf90_rp0123d, file: output.init_0000.nc, var: soicecov defined ok
           iom_nf90_rp0123d, file: output.init_0000.nc, var: soicecov written ok
           iom_nf90_rp0123d, file: output.init_0000.nc, var: sozotaux defined ok
           iom_nf90_rp0123d, file: output.init_0000.nc, var: sozotaux written ok
           iom_nf90_rp0123d, file: output.init_0000.nc, var: sometauy defined ok
           iom_nf90_rp0123d, file: output.init_0000.nc, var: sometauy written ok
                     iom_close ~~~ close file: output.init_0000.nc ok

 tra_sbc : TRAcer Surface Boundary Condition
 ~~~~~~~ 

 tra_adv_fct : FCT advection scheme on TRA
 ~~~~~~~~~~~

 tra_zdf : implicit vertical mixing on T & S
 ~~~~~~~ 

 tra_nxt : achieve the time stepping by Asselin filter and array swap
 ~~~~~~~

 dyn_nxt : time stepping
 ~~~~~~~

 ssh_swp : Asselin time filter and swap of sea surface height
 ~~~~~~~ 

 stp_ctl : time-stepping control
 ~~~~~~~
      file   : time.step open ok
      unit   =           21
      status = REPLACE
      form   = FORMATTED
      access = SEQUENTIAL


              open ocean restart NetCDF file: ./SLO_zco_5m_lowkz_00003060_restart
              kt = nitrst - 1 =         3059
                     iom_nf90_open ~~~ create new file: ./SLO_zco_5m_lowkz_00003060_restart_0000.nc in WRITE mode
                    ---> ./SLO_zco_5m_lowkz_00003060_restart_0000.nc OK
           iom_nf90_rp0123d, file: ./SLO_zco_5m_lowkz_00003060_restart_0000.nc, var: kt define dimension variables done
           iom_nf90_rp0123d, file: ./SLO_zco_5m_lowkz_00003060_restart_0000.nc, var: kt defined ok
           iom_nf90_rp0123d, file: ./SLO_zco_5m_lowkz_00003060_restart_0000.nc, var: ndastp defined ok
           iom_nf90_rp0123d, file: ./SLO_zco_5m_lowkz_00003060_restart_0000.nc, var: adatrj defined ok
           iom_nf90_rp0123d, file: ./SLO_zco_5m_lowkz_00003060_restart_0000.nc, var: ntime defined ok

 sbc : ocean surface forcing fields written in ocean restart file at it=         3059  date=        10101
 ~~~~
           iom_nf90_rp0123d, file: ./SLO_zco_5m_lowkz_00003060_restart_0000.nc, var: utau_b defined ok
           iom_nf90_rp0123d, file: ./SLO_zco_5m_lowkz_00003060_restart_0000.nc, var: vtau_b defined ok
           iom_nf90_rp0123d, file: ./SLO_zco_5m_lowkz_00003060_restart_0000.nc, var: qns_b defined ok
           iom_nf90_rp0123d, file: ./SLO_zco_5m_lowkz_00003060_restart_0000.nc, var: emp_b defined ok
           iom_nf90_rp0123d, file: ./SLO_zco_5m_lowkz_00003060_restart_0000.nc, var: sfx_b defined ok
 ---- ts_rst ----
           iom_nf90_rp0123d, file: ./SLO_zco_5m_lowkz_00003060_restart_0000.nc, var: ub2_b defined ok
           iom_nf90_rp0123d, file: ./SLO_zco_5m_lowkz_00003060_restart_0000.nc, var: vb2_b defined ok
           iom_nf90_rp0123d, file: ./SLO_zco_5m_lowkz_00003060_restart_0000.nc, var: un_bf defined ok
           iom_nf90_rp0123d, file: ./SLO_zco_5m_lowkz_00003060_restart_0000.nc, var: vn_bf defined ok
           iom_nf90_rp0123d, file: ./SLO_zco_5m_lowkz_00003060_restart_0000.nc, var: sbc_hc_b defined ok
           iom_nf90_rp0123d, file: ./SLO_zco_5m_lowkz_00003060_restart_0000.nc, var: sbc_sc_b defined ok
           iom_nf90_rp0123d, file: ./SLO_zco_5m_lowkz_00003060_restart_0000.nc, var: rdt defined ok
           iom_nf90_rp0123d, file: ./SLO_zco_5m_lowkz_00003060_restart_0000.nc, var: ub defined ok
           iom_nf90_rp0123d, file: ./SLO_zco_5m_lowkz_00003060_restart_0000.nc, var: vb defined ok
           iom_nf90_rp0123d, file: ./SLO_zco_5m_lowkz_00003060_restart_0000.nc, var: tb defined ok
           iom_nf90_rp0123d, file: ./SLO_zco_5m_lowkz_00003060_restart_0000.nc, var: sb defined ok
           iom_nf90_rp0123d, file: ./SLO_zco_5m_lowkz_00003060_restart_0000.nc, var: sshb defined ok
           iom_nf90_rp0123d, file: ./SLO_zco_5m_lowkz_00003060_restart_0000.nc, var: un defined ok
           iom_nf90_rp0123d, file: ./SLO_zco_5m_lowkz_00003060_restart_0000.nc, var: vn defined ok
           iom_nf90_rp0123d, file: ./SLO_zco_5m_lowkz_00003060_restart_0000.nc, var: tn defined ok
           iom_nf90_rp0123d, file: ./SLO_zco_5m_lowkz_00003060_restart_0000.nc, var: sn defined ok
           iom_nf90_rp0123d, file: ./SLO_zco_5m_lowkz_00003060_restart_0000.nc, var: sshn defined ok
           iom_nf90_rp0123d, file: ./SLO_zco_5m_lowkz_00003060_restart_0000.nc, var: rhop defined ok

 rst_write : write oce restart file  kt =        3060
 ~~~~~~~
           iom_nf90_rp0123d, file: ./SLO_zco_5m_lowkz_00003060_restart_0000.nc, var: kt written ok
           iom_nf90_rp0123d, file: ./SLO_zco_5m_lowkz_00003060_restart_0000.nc, var: ndastp written ok
           iom_nf90_rp0123d, file: ./SLO_zco_5m_lowkz_00003060_restart_0000.nc, var: adatrj written ok
           iom_nf90_rp0123d, file: ./SLO_zco_5m_lowkz_00003060_restart_0000.nc, var: ntime written ok

 sbc : ocean surface forcing fields written in ocean restart file at it=         3060  date=        10101
 ~~~~
           iom_nf90_rp0123d, file: ./SLO_zco_5m_lowkz_00003060_restart_0000.nc, var: utau_b write dimension variables done
           iom_nf90_rp0123d, file: ./SLO_zco_5m_lowkz_00003060_restart_0000.nc, var: utau_b written ok
           iom_nf90_rp0123d, file: ./SLO_zco_5m_lowkz_00003060_restart_0000.nc, var: vtau_b written ok
           iom_nf90_rp0123d, file: ./SLO_zco_5m_lowkz_00003060_restart_0000.nc, var: qns_b written ok
           iom_nf90_rp0123d, file: ./SLO_zco_5m_lowkz_00003060_restart_0000.nc, var: emp_b written ok
           iom_nf90_rp0123d, file: ./SLO_zco_5m_lowkz_00003060_restart_0000.nc, var: sfx_b written ok
 ---- ts_rst ----
           iom_nf90_rp0123d, file: ./SLO_zco_5m_lowkz_00003060_restart_0000.nc, var: ub2_b written ok
           iom_nf90_rp0123d, file: ./SLO_zco_5m_lowkz_00003060_restart_0000.nc, var: vb2_b written ok
           iom_nf90_rp0123d, file: ./SLO_zco_5m_lowkz_00003060_restart_0000.nc, var: un_bf written ok
           iom_nf90_rp0123d, file: ./SLO_zco_5m_lowkz_00003060_restart_0000.nc, var: vn_bf written ok
           iom_nf90_rp0123d, file: ./SLO_zco_5m_lowkz_00003060_restart_0000.nc, var: sbc_hc_b written ok
           iom_nf90_rp0123d, file: ./SLO_zco_5m_lowkz_00003060_restart_0000.nc, var: sbc_sc_b written ok
           iom_nf90_rp0123d, file: ./SLO_zco_5m_lowkz_00003060_restart_0000.nc, var: rdt written ok
           iom_nf90_rp0123d, file: ./SLO_zco_5m_lowkz_00003060_restart_0000.nc, var: ub written ok
           iom_nf90_rp0123d, file: ./SLO_zco_5m_lowkz_00003060_restart_0000.nc, var: vb written ok
           iom_nf90_rp0123d, file: ./SLO_zco_5m_lowkz_00003060_restart_0000.nc, var: tb written ok
           iom_nf90_rp0123d, file: ./SLO_zco_5m_lowkz_00003060_restart_0000.nc, var: sb written ok
           iom_nf90_rp0123d, file: ./SLO_zco_5m_lowkz_00003060_restart_0000.nc, var: sshb written ok
           iom_nf90_rp0123d, file: ./SLO_zco_5m_lowkz_00003060_restart_0000.nc, var: un written ok
           iom_nf90_rp0123d, file: ./SLO_zco_5m_lowkz_00003060_restart_0000.nc, var: vn written ok
           iom_nf90_rp0123d, file: ./SLO_zco_5m_lowkz_00003060_restart_0000.nc, var: tn written ok
           iom_nf90_rp0123d, file: ./SLO_zco_5m_lowkz_00003060_restart_0000.nc, var: sn written ok
           iom_nf90_rp0123d, file: ./SLO_zco_5m_lowkz_00003060_restart_0000.nc, var: sshn written ok
           iom_nf90_rp0123d, file: ./SLO_zco_5m_lowkz_00003060_restart_0000.nc, var: rhop written ok
                     iom_close ~~~ close file: ./SLO_zco_5m_lowkz_00003060_restart_0000.nc ok

AAAAAAAA

