
    CNRS - NERC - Met OFFICE - MERCATOR-ocean - CMCC
                        NEMO team
             Ocean General Circulation Model
                 NEMO version 4.0  (2019) 

            ._      ._      ._      ._      ._    
        _.-._)`\_.-._)`\_.-._)`\_.-._)`\_.-._)`\_ 

            o         _,           _,             
             o      .' (        .-' /             
            o     _/..._'.    .'   /              
       (    o .-'`      ` '-./  _.'               
        )    ( o)           ;= <_         (       
       (      '-.,\\__ __.-;`\   '.        )      
        )  )       \) |`\ \)  '.   \      (   (   
       (  (           \_/       '-._\      )   )  
        )  ) jgs                     `    (   (   
      ^^^^^^^^^^^^^^^^^^^^^^^^^^^^^^^^^^^^^^^^^^^ 


AAAAAAAA

    
 usr_def_nam  : read the user defined namelist (namusr_def) in namelist_cfg
 ~~~~~~~~~~~ 
    Namelist namusr_def : SLOPE test case
       type of vertical coordinate : 
          z-coordinate flag                     ln_zco =  T
          z-partial-step coordinate flag        ln_zps =  F
          s-coordinate flag                     ln_sco =  F
       horizontal resolution                    rn_dx  =    20000.000000000000       meters
       vertical   resolution                    rn_dz  =    100.00000000000000       meters
       SLOPE domain = 200 km x 3 grid-points x 2000 m
          resulting global domain size :        jpiglo =           12
                                                jpjglo =            3
                                                jpkglo =           21
    
    Lateral boundary condition of the global domain
       SLOPE : closed basin                  jperio =            1
    Namelist nammpp
       jpni and jpnj will be calculated automatically
       avoid use of mpi_allgather at the north fold  ln_nnogather =  T
 mpp_init:
 ~~~~~~~~ 

    ==> you use the best mpi decomposition

   Number of mpi processes:     1
   Number of ocean subdomains =     1
   Number of suppressed land subdomains =     0


 MPI Message Passing MPI - domain lay out over processors

    defines mpp subdomains
       jpni =            1
       jpnj =            1

       sum ilci(i,1) =           12  jpiglo =           12
       sum ilcj(1,j) =            3  jpjglo =            3

           ****************
           *              *   
         1 *   12  x  3   *   
           *          0   *        
           *              *   
           ****************
                   1             

    resulting internal parameters : 
       nproc  =            0
       nowe   =            0    noea  =             0
       nono   =           -1    noso  =            -1
       nbondi =            2
       nbondj =            2
       npolj  =            0
     l_Iperio =  T
     l_Jperio =  F
       nlci   =           12
       nlcj   =            3
       nimpp  =            1
       njmpp  =            1
       nreci  =            2
       nrecj  =            2
       nn_hls =            1

 mpp_init_ioipsl :   iloc  =           12           3
 ~~~~~~~~~~~~~~~     iabsf =            1           1
                     ihals =            0           0
                     ihale =            0           0

 nemo_ctl: Control prints
 ~~~~~~~~
    Namelist namctl
       run control (for debugging)     ln_ctl     =  F
        finer control over o/p sn_cfctl%l_config  =  T
                               sn_cfctl%l_runstat =  F
                               sn_cfctl%l_trcstat =  F
                               sn_cfctl%l_oceout  =  F
                               sn_cfctl%l_layout  =  F
                               sn_cfctl%l_mppout  =  F
                               sn_cfctl%l_mpptop  =  F
                               sn_cfctl%procmin   =            0
                               sn_cfctl%procmax   =      1000000
                               sn_cfctl%procincr  =            1
                               sn_cfctl%ptimincr  =            1
       level of print                  nn_print   =            0
       Start i indice for SUM control  nn_ictls   =            0
       End i indice for SUM control    nn_ictle   =            0
       Start j indice for SUM control  nn_jctls   =            0
       End j indice for SUM control    nn_jctle   =            0
       number of proc. following i     nn_isplt   =            1
       number of proc. following j     nn_jsplt   =            1
       timing by routine               ln_timing  =  F
       CFL diagnostics                 ln_diacfl  =  F

    Namelist namcfg
       read domain configuration file                ln_read_cfg      =  F
          filename to be read                           cn_domcfg     = domain_cfg
          keep closed seas in the domain (if exist)     ln_closea     =  F
       create a configuration definition file        ln_write_cfg     =  F
          filename to be written                        cn_domcfg_out = domain_cfg_out
       use file attribute if exists as i/p j-start   ln_use_jattr     =  F

 phy_cst : initialization of ocean parameters and constants
 ~~~~~~~
       mathematical constant                 rpi =    3.1415926535897931     
       day                                rday   =    86400.000000000000       s
       sideral year                       rsiyea =    31558149.010110732       s
       sideral day                        rsiday =    86164.099655911836       s
       omega                              omega  =    7.2921150830460618E-005  s^-1

       nb of months per year               raamo =    12.000000000000000       months
       nb of hours per day                 rjjhh =    24.000000000000000       hours
       nb of minutes per hour              rhhmm =    60.000000000000000       mn
       nb of seconds per minute            rmmss =    60.000000000000000       s

       earth radius                         ra   =    6371229.0000000000       m
       gravity                              grav =    9.8066499999999994       m/s^2

       freezing point of water              rt0  =    273.14999999999998       K

    reference density and heat capacity now defined in eosbn2.f90

       thermal conductivity of pure ice          =    2.0343960000000001       J/s/m/K
       thermal conductivity of snow is defined in a namelist 
       fresh ice specific heat                   =    2067.0000000000000       J/kg/K
       latent heat of fusion of fresh ice / snow =    334000.00000000000       J/kg
       latent heat of subl.  of fresh ice / snow =    2834000.0000000000       J/kg
       density of sea ice                        =    917.00000000000000       kg/m^3
       density of snow                           =    330.00000000000000       kg/m^3
       density of freshwater (in melt ponds)     =    1000.0000000000000       kg/m^3
       salinity of ice (for pisces)              =    6.0000000000000000       psu
       salinity of sea (for pisces and isf)      =    34.700000000000003       psu
       latent heat of evaporation (water)        =    2500000.0000000000       J/m^3
       von Karman constant                       =   0.40000000000000002     
       Stefan-Boltzmann constant                 =    5.6699999999999998E-008  J/s/m^2/K^4

       conversion: degre ==> radian          rad =    1.7453292519943295E-002

       smallest real computer value       rsmall =    1.1102230246251565E-016

 eos_init : equation of state
 ~~~~~~~~
    Namelist nameos : Chosen the Equation Of Seawater (EOS)
       TEOS-10 : rho=F(Conservative Temperature, Absolute  Salinity, depth)   ln_TEOS10 =  F
       EOS-80  : rho=F(Potential    Temperature, Practical Salinity, depth)   ln_EOS80  =  F
       S-EOS   : rho=F(Conservative Temperature, Absolute  Salinity, depth)   ln_SEOS   =  T

    ==>>>   use of simplified eos:    
               rhd(dT=T-10,dS=S-35,Z) = [-a0*(1+lambda1/2*dT+mu1*Z)*dT 
                                        + b0*(1+lambda2/2*dT+mu2*Z)*dS - nu*dT*dS] / rau0
               with the following coefficients :
                  thermal exp. coef.    rn_a0      =   0.20000000000000001     
                  saline  cont. coef.   rn_b0      =    0.0000000000000000     
                  cabbeling coef.       rn_lambda1 =    0.0000000000000000     
                  cabbeling coef.       rn_lambda2 =    0.0000000000000000     
                  thermobar. coef.      rn_mu1     =    0.0000000000000000     
                  thermobar. coef.      rn_mu2     =    0.0000000000000000     
                  2nd cabbel. coef.     rn_nu      =    0.0000000000000000     
               Caution: rn_beta0=0 incompatible with ddm parameterization 

    ==>>>   model uses Conservative Temperature
            Important: model must be initialized with CT and SA fields

    Associated physical constant
       volumic mass of reference           rau0  =    1026.0000000000000       kg/m^3
       1. / rau0                        r1_rau0  =    9.7465886939571145E-004  m^3/kg
       ocean specific heat                 rcp   =    3991.8679571196299       J/Kelvin
       rau0 * rcp                       rau0_rcp =    4095656.5240047402     
       1. / ( rau0 * rcp )           r1_rau0_rcp =    2.4416109948160356E-007

 wad_init : Wetting and drying initialization through namelist read
 ~~~~~~~~
    Namelist namwad
       Logical for Iter Lim wd option   ln_wd_il     =  F
       Logical for Dir. Lim wd option   ln_wd_dl     =  F
       Depth at which wet/drying starts rn_wdmin0    =   0.29999999999999999     
       Minimum wet depth on dried cells rn_wdmin1    =   0.20000000000000001     
       Tolerance of min wet depth       rn_wdmin2    =    1.0000000000000000E-004
       land elevation threshold         rn_wdld      =    2.5000000000000000     
       Max iteration for W/D limiter    nn_wdit      =           20
       T => baroclinic u,v=0 at dry pts: ln_wd_dl_bc =  F
       use a ramp for rwd limiter:  ln_wd_dl_rwd_rmp =  F
       cut off depth sbc for wd   rn_wd_sbcdep       =    5.0000000000000000     
       fraction to start sbc wgt rn_wd_sbcfra        =   0.99900000000000000     
       No configuration file so seting ssh_ref to zero  

 dom_init : domain initialization
 ~~~~~~~~
    Domain info
       dimension of model:
              Local domain      Global domain       Data domain 
               jpi     :      12   jpiglo  :      12
               jpj     :       3   jpjglo  :       3
               jpk     :      21   jpkglo  :      21
               jpij    :      36
       mpp local domain info (mpp):
               jpni    :            1    nn_hls  :            1
               jpnj    :            1    nn_hls  :            1
               jpnij   :            1
       lateral boundary of the Global domain : jperio  =            1
          (i.e. cyclic east-west)
       Ocean model configuration used:
          cn_cfg = SLOPE   nn_cfg =        20000

 dom_glo : domain: global <<==>> local 
 ~~~~~~~ 
    global domain:   jpiglo =           12  jpjglo =            3  jpkglo =           21
    local  domain:   jpi    =           12  jpj    =            3  jpk    =           21

    conversion from local to global domain indices (and vise versa) done

 dom_nam : domain initialization through namelist read
 ~~~~~~~ 
    Namelist : namrun   ---   run parameters
       Assimilation cycle              nn_no           =            0
       experiment name for output      cn_exp          = SLO_FCT4_flux_ubs
       file prefix restart input       cn_ocerst_in    = restart
       restart input directory         cn_ocerst_indir = .
       file prefix restart output      cn_ocerst_out   = restart
       restart output directory        cn_ocerst_outdir= .
       restart logical                 ln_rstart       =  F
       start with forward time step    nn_euler        =            1
       control of time step            nn_rstctl       =            0
       number of the first time step   nn_it000        =            1
       number of the last time step    nn_itend        =        68000
       initial calendar date aammjj    nn_date0        =        10101
       initial time of day in hhmm     nn_time0        =            0
       leap year calendar (0/1)        nn_leapy        =            0
       initial state output            nn_istate       =            1
       frequency of restart file       nn_stock        =         6120
       mask land points                ln_mskland      =  F
       additional CF standard metadata ln_cfmeta       =  F
       overwrite an existing file      ln_clobber      =  T
       NetCDF chunksize (bytes)        nn_chunksz      =            0
       IS coupling at the restart step ln_iscpl        =  F
       READ restart for a single file using XIOS ln_xios_read = F
       Write restart using XIOS        nn_wxios   =            0

    ==>>>   Start from rest (ln_rstart=F)
            an Euler initial time step is used : nn_euler is forced to 0 

    ==>>>   The IOIPSL calendar is "noleap", i.e. no leap year

    Namelist : namdom   ---   space & time domain
       linear free surface (=T)                ln_linssh   =  T
       create mesh/mask file                   ln_meshmask =  T
       treshold to open the isf cavity         rn_isfhmin  =    1.0000000000000000       [m]
       ocean time step                         rn_rdt      =    900.00000000000000     
       asselin time filter parameter           rn_atfp     =   0.10000000000000001     
       online coarsening of dynamical fields   ln_crs      =  F

 dom_hgr : define the horizontal mesh from ithe following par_oce parameters 
 ~~~~~~~   
    namcfg : read (=T) or user defined (=F) configuration    ln_read_cfg  =  F

           User defined horizontal mesh (usr_def_hgr)

 usr_def_hgr : SLOPE configuration bassin
 ~~~~~~~~~~~   uniform grid spacing WITHOUT Coriolis force (f=0)
           Coriolis parameter have been set in usr_def_hgr routine
           u- & v-surfaces calculated as e1 e2 product

 dom_zgr : vertical coordinate
 ~~~~~~~
    linear free surface: the vertical mesh does not change in time

           User defined vertical mesh (usr_def_zgr)

 usr_def_zgr : SLOPE configuration (z(ps)- or s-coordinate closed box ocean without cavities)
 ~~~~~~~~~~~

     zgr_z1d : Reference vertical z-coordinates: uniform dz =    100.00000000000000     
     ~~~~~~~

               Reference 1D z-coordinate depth and scale factors:
          level  gdept_1d  gdepw_1d  e3t_1d   e3w_1d  
             1    50.00     0.00   100.00   100.00
             2   150.00   100.00   100.00   100.00
             3   250.00   200.00   100.00   100.00
             4   350.00   300.00   100.00   100.00
             5   450.00   400.00   100.00   100.00
             6   550.00   500.00   100.00   100.00
             7   650.00   600.00   100.00   100.00
             8   750.00   700.00   100.00   100.00
             9   850.00   800.00   100.00   100.00
            10   950.00   900.00   100.00   100.00
            11  1050.00  1000.00   100.00   100.00
            12  1150.00  1100.00   100.00   100.00
            13  1250.00  1200.00   100.00   100.00
            14  1350.00  1300.00   100.00   100.00
            15  1450.00  1400.00   100.00   100.00
            16  1550.00  1500.00   100.00   100.00
            17  1650.00  1600.00   100.00   100.00
            18  1750.00  1700.00   100.00   100.00
            19  1850.00  1800.00   100.00   100.00
            20  1950.00  1900.00   100.00   100.00
            21  2050.00  2000.00   100.00   100.00

 clo_bat : suppression of closed seas
 ~~~~~~~
 No domain_cfg file => no suppression of closed seas.

    Type of vertical coordinate (read in domain_cfg file or set in userdef_nam) :
       z-coordinate - full steps      ln_zco    =  T
       z-coordinate - partial steps   ln_zps    =  F
       s- or hybrid z-s-coordinate    ln_sco    =  F
       ice shelf cavities             ln_isfcav =  F

     zgr_top_bot : ocean top and bottom k-index of T-, U-, V- and W-levels 
     ~~~~~~~~~~~

 dommsk : ocean mask 
 ~~~~~~
    Namelist namlbc
       lateral momentum boundary cond.    rn_shlat  =    0.0000000000000000     
       consistency with analytical form   ln_vorlat =  F

    ==>>>   ocean lateral  free-slip

 usr_def_fmask : NO alteration of fmask in specific straits 
 ~~~~~~~~~~~~~

 dom_wri : create NetCDF mesh and mask information file(s)
 ~~~~~~~
                     iom_nf90_open ~~~ create new file: mesh_mask.nc in WRITE mode
                    ---> mesh_mask.nc OK
           iom_nf90_rp0123d, file: mesh_mask.nc, var: jpiglo define dimension variables done
           iom_nf90_rp0123d, file: mesh_mask.nc, var: jpiglo defined ok
           iom_nf90_rp0123d, file: mesh_mask.nc, var: jpiglo written ok
           iom_nf90_rp0123d, file: mesh_mask.nc, var: jpjglo defined ok
           iom_nf90_rp0123d, file: mesh_mask.nc, var: jpjglo written ok
           iom_nf90_rp0123d, file: mesh_mask.nc, var: jpkglo defined ok
           iom_nf90_rp0123d, file: mesh_mask.nc, var: jpkglo written ok
           iom_nf90_rp0123d, file: mesh_mask.nc, var: jperio defined ok
           iom_nf90_rp0123d, file: mesh_mask.nc, var: jperio written ok
           iom_nf90_rp0123d, file: mesh_mask.nc, var: ln_zco defined ok
           iom_nf90_rp0123d, file: mesh_mask.nc, var: ln_zco written ok
           iom_nf90_rp0123d, file: mesh_mask.nc, var: ln_zps defined ok
           iom_nf90_rp0123d, file: mesh_mask.nc, var: ln_zps written ok
           iom_nf90_rp0123d, file: mesh_mask.nc, var: ln_sco defined ok
           iom_nf90_rp0123d, file: mesh_mask.nc, var: ln_sco written ok
           iom_nf90_rp0123d, file: mesh_mask.nc, var: ln_isfcav defined ok
           iom_nf90_rp0123d, file: mesh_mask.nc, var: ln_isfcav written ok
           iom_nf90_rp0123d, file: mesh_mask.nc, var: tmask defined ok
           iom_nf90_rp0123d, file: mesh_mask.nc, var: tmask write dimension variables done
           iom_nf90_rp0123d, file: mesh_mask.nc, var: tmask written ok
           iom_nf90_rp0123d, file: mesh_mask.nc, var: umask defined ok
           iom_nf90_rp0123d, file: mesh_mask.nc, var: umask written ok
           iom_nf90_rp0123d, file: mesh_mask.nc, var: vmask defined ok
           iom_nf90_rp0123d, file: mesh_mask.nc, var: vmask written ok
           iom_nf90_rp0123d, file: mesh_mask.nc, var: fmask defined ok
           iom_nf90_rp0123d, file: mesh_mask.nc, var: fmask written ok
           iom_nf90_rp0123d, file: mesh_mask.nc, var: tmaskutil defined ok
           iom_nf90_rp0123d, file: mesh_mask.nc, var: tmaskutil written ok
           iom_nf90_rp0123d, file: mesh_mask.nc, var: umaskutil defined ok
           iom_nf90_rp0123d, file: mesh_mask.nc, var: umaskutil written ok
           iom_nf90_rp0123d, file: mesh_mask.nc, var: vmaskutil defined ok
           iom_nf90_rp0123d, file: mesh_mask.nc, var: vmaskutil written ok
           iom_nf90_rp0123d, file: mesh_mask.nc, var: glamt defined ok
           iom_nf90_rp0123d, file: mesh_mask.nc, var: glamt written ok
           iom_nf90_rp0123d, file: mesh_mask.nc, var: glamu defined ok
           iom_nf90_rp0123d, file: mesh_mask.nc, var: glamu written ok
           iom_nf90_rp0123d, file: mesh_mask.nc, var: glamv defined ok
           iom_nf90_rp0123d, file: mesh_mask.nc, var: glamv written ok
           iom_nf90_rp0123d, file: mesh_mask.nc, var: glamf defined ok
           iom_nf90_rp0123d, file: mesh_mask.nc, var: glamf written ok
           iom_nf90_rp0123d, file: mesh_mask.nc, var: gphit defined ok
           iom_nf90_rp0123d, file: mesh_mask.nc, var: gphit written ok
           iom_nf90_rp0123d, file: mesh_mask.nc, var: gphiu defined ok
           iom_nf90_rp0123d, file: mesh_mask.nc, var: gphiu written ok
           iom_nf90_rp0123d, file: mesh_mask.nc, var: gphiv defined ok
           iom_nf90_rp0123d, file: mesh_mask.nc, var: gphiv written ok
           iom_nf90_rp0123d, file: mesh_mask.nc, var: gphif defined ok
           iom_nf90_rp0123d, file: mesh_mask.nc, var: gphif written ok
           iom_nf90_rp0123d, file: mesh_mask.nc, var: e1t defined ok
           iom_nf90_rp0123d, file: mesh_mask.nc, var: e1t written ok
           iom_nf90_rp0123d, file: mesh_mask.nc, var: e1u defined ok
           iom_nf90_rp0123d, file: mesh_mask.nc, var: e1u written ok
           iom_nf90_rp0123d, file: mesh_mask.nc, var: e1v defined ok
           iom_nf90_rp0123d, file: mesh_mask.nc, var: e1v written ok
           iom_nf90_rp0123d, file: mesh_mask.nc, var: e1f defined ok
           iom_nf90_rp0123d, file: mesh_mask.nc, var: e1f written ok
           iom_nf90_rp0123d, file: mesh_mask.nc, var: e2t defined ok
           iom_nf90_rp0123d, file: mesh_mask.nc, var: e2t written ok
           iom_nf90_rp0123d, file: mesh_mask.nc, var: e2u defined ok
           iom_nf90_rp0123d, file: mesh_mask.nc, var: e2u written ok
           iom_nf90_rp0123d, file: mesh_mask.nc, var: e2v defined ok
           iom_nf90_rp0123d, file: mesh_mask.nc, var: e2v written ok
           iom_nf90_rp0123d, file: mesh_mask.nc, var: e2f defined ok
           iom_nf90_rp0123d, file: mesh_mask.nc, var: e2f written ok
           iom_nf90_rp0123d, file: mesh_mask.nc, var: ff_f defined ok
           iom_nf90_rp0123d, file: mesh_mask.nc, var: ff_f written ok
           iom_nf90_rp0123d, file: mesh_mask.nc, var: ff_t defined ok
           iom_nf90_rp0123d, file: mesh_mask.nc, var: ff_t written ok
           iom_nf90_rp0123d, file: mesh_mask.nc, var: mbathy defined ok
           iom_nf90_rp0123d, file: mesh_mask.nc, var: mbathy written ok
           iom_nf90_rp0123d, file: mesh_mask.nc, var: misf defined ok
           iom_nf90_rp0123d, file: mesh_mask.nc, var: misf written ok
           iom_nf90_rp0123d, file: mesh_mask.nc, var: isfdraft defined ok
           iom_nf90_rp0123d, file: mesh_mask.nc, var: isfdraft written ok
           iom_nf90_rp0123d, file: mesh_mask.nc, var: e3t_1d defined ok
           iom_nf90_rp0123d, file: mesh_mask.nc, var: e3t_1d written ok
           iom_nf90_rp0123d, file: mesh_mask.nc, var: e3w_1d defined ok
           iom_nf90_rp0123d, file: mesh_mask.nc, var: e3w_1d written ok
           iom_nf90_rp0123d, file: mesh_mask.nc, var: e3t_0 defined ok
           iom_nf90_rp0123d, file: mesh_mask.nc, var: e3t_0 written ok
           iom_nf90_rp0123d, file: mesh_mask.nc, var: e3u_0 defined ok
           iom_nf90_rp0123d, file: mesh_mask.nc, var: e3u_0 written ok
           iom_nf90_rp0123d, file: mesh_mask.nc, var: e3v_0 defined ok
           iom_nf90_rp0123d, file: mesh_mask.nc, var: e3v_0 written ok
           iom_nf90_rp0123d, file: mesh_mask.nc, var: e3f_0 defined ok
           iom_nf90_rp0123d, file: mesh_mask.nc, var: e3f_0 written ok
           iom_nf90_rp0123d, file: mesh_mask.nc, var: e3w_0 defined ok
           iom_nf90_rp0123d, file: mesh_mask.nc, var: e3w_0 written ok
           iom_nf90_rp0123d, file: mesh_mask.nc, var: e3uw_0 defined ok
           iom_nf90_rp0123d, file: mesh_mask.nc, var: e3uw_0 written ok
           iom_nf90_rp0123d, file: mesh_mask.nc, var: e3vw_0 defined ok
           iom_nf90_rp0123d, file: mesh_mask.nc, var: e3vw_0 written ok
           iom_nf90_rp0123d, file: mesh_mask.nc, var: gdept_1d defined ok
           iom_nf90_rp0123d, file: mesh_mask.nc, var: gdept_1d written ok
           iom_nf90_rp0123d, file: mesh_mask.nc, var: gdepw_1d defined ok
           iom_nf90_rp0123d, file: mesh_mask.nc, var: gdepw_1d written ok
           iom_nf90_rp0123d, file: mesh_mask.nc, var: gdept_0 defined ok
           iom_nf90_rp0123d, file: mesh_mask.nc, var: gdept_0 written ok
           iom_nf90_rp0123d, file: mesh_mask.nc, var: gdepw_0 defined ok
           iom_nf90_rp0123d, file: mesh_mask.nc, var: gdepw_0 written ok
                     iom_close ~~~ close file: mesh_mask.nc ok

 dom_ctl : extrema of the masked scale factors
 ~~~~~~~
              e1t maxi:   20000.00 at i =     2 j=     2
              e1t mini:   20000.00 at i =     2 j=     2
              e2t maxi:   20000.00 at i =     2 j=     2
              e2t mini:   20000.00 at i =     2 j=     2

 dom_init :   ==>>>   END of domain initialization
 ~~~~~~~~


 istate_init : Initialization of the dynamics and tracers
 ~~~~~~~~~~~

 dta_tsd_init : Temperature & Salinity data 
 ~~~~~~~~~~~~ 
    Namelist namtsd
       Initialisation of ocean T & S with T &S input data   ln_tsd_init =  F
       damping of ocean T & S toward T &S input data        ln_tsd_dmp  =  F


    ===>>   T & S data not used
  *** Info used values : 
    date ndastp                                      :        10100
    number of elapsed days since the begining of run :    0.0000000000000000     
    nn_time0                                         :            0

 =======>> 1/2 time step before the start of the run DATE Y/M/D =      0/12/31  nsec_day:   85950  nsec_week:  431550                     nsec_month: 2677950  nsec_year:31535550
======>> time-step =       1      New day, DATE Y/M/D = 0001/01/01      nday_year = 001
         nsec_year =      450   nsec_month =     450   nsec_day =   450
   nsec_week =   432450

 usr_def_istate : SLOPE configuration, analytical definition of initial state
 ~~~~~~~~~~~~~~   Ocean at rest, with a constant salinity (not used as rho=F(T) 
                  and a vertical density front with a 2 kg/m3 difference located at glam=20km
                  (i.e. a temperature difference of 10 degrees with rn_a0 = 0.2

 tide_init : tidal components not used (ln_tide = F)
 ~~~~~~~~~ 

 sbc_init : surface boundary condition setting
 ~~~~~~~~ 
    Namelist namsbc (partly overwritten with CPP key setting)
       frequency update of sbc (and ice)             nn_fsbc       =            1
       Type of air-sea fluxes : 
          user defined formulation                   ln_usr        =  T
          flux         formulation                   ln_flx        =  F
          bulk         formulation                   ln_blk        =  F
       Type of coupling (Ocean/Ice/Atmosphere) : 
          ocean-atmosphere coupled formulation       ln_cpl        =  F
          mixed forced-coupled     formulation       ln_mixcpl     =  F
          OASIS coupling (with atm or sas)           lk_oasis      =  F
          components of your executable              nn_components =            0
       Sea-ice : 
          ice management in the sbc (=0/1/2/3)       nn_ice        =            0
          ice embedded into ocean                    ln_ice_embd   =  F
       Misc. options of sbc : 
          Light penetration in temperature Eq.       ln_traqsr     =  F
             daily mean to diurnal cycle qsr            ln_dm2dc   =  F
          Sea Surface Restoring on SST and/or SSS    ln_ssr        =  F
          FreshWater Budget control  (=0/1/2)        nn_fwb        =            0
          Patm gradient added in ocean & ice Eqs.    ln_apr_dyn    =  F
          runoff / runoff mouths                     ln_rnf        =  F
          iceshelf formulation                       ln_isf        =  F
          nb of iterations if land-sea-mask applied  nn_lsm        =            0
          surface wave                               ln_wave       =  F
                Stokes drift corr. to vert. velocity ln_sdw        =  F
                   vertical parametrization          nn_sdrift     =            0
                wave modified ocean stress           ln_tauwoc     =  F
                wave modified ocean stress component ln_tauw       =  F
                Stokes coriolis term                 ln_stcor      =  F
                neutral drag coefficient (CORE,NCAR) ln_cdgw       =  F

    ==>>>   NEMO configured as a single executable (i.e. including both OPA and Surface module)

    ==>>>   user defined forcing formulation

 sbc_ssm_init : sea surface mean fields, nn_fsbc=1 : instantaneous values
 ~~~~~~~~~~~ 
    default initialisation of ss._m arrays

 bdy_init : open boundaries not used (ln_bdy = F)
 ~~~~~~~~

 zdf_phy_init: ocean vertical physics
 ~~~~~~~~~~~~
    Namelist namzdf : set vertical mixing mixing parameters
       adaptive-implicit vertical advection
          Courant number targeted application   ln_zad_Aimp =  T
       vertical closure scheme
          constant vertical mixing coefficient    ln_zdfcst =  T
          Richardson number dependent closure     ln_zdfric =  F
          Turbulent Kinetic Energy closure (TKE)  ln_zdftke =  F
          Generic Length Scale closure (GLS)      ln_zdfgls =  F
          OSMOSIS-OBL closure (OSM)               ln_zdfosm =  F
       convection: 
          enhanced vertical diffusion             ln_zdfevd =  F
             applied on momentum (=1/0)             nn_evdm =            0
             vertical coefficient for evd           rn_evd  =    100.00000000000000     
          non-penetrative convection (npc)        ln_zdfnpc =  F
             npc call  frequency                    nn_npc  =            1
             npc print frequency                    nn_npcp =          365
       double diffusive mixing                    ln_zdfddm =  F
          maximum avs for dd mixing                 rn_avts =    1.0000000000000000E-004
          heat/salt buoyancy flux ratio             rn_hsbfr=    1.6000000000000001     
       gravity wave-induced mixing
          surface  wave (Qiao et al 2010)         ln_zdfswm =  F
          internal wave (de Lavergne et al 2017)  ln_zdfiwm =  F
       coefficients : 
          vertical eddy viscosity                 rn_avm0   =    1.0000000000000000E-004
          vertical eddy diffusivity               rn_avt0   =    0.0000000000000000     
          constant background or profile          nn_avb    =            0
          horizontal variation for avtb           nn_havtb  =            0

    ==>>>   convection: no specific scheme used

    ==>>>   No  double diffusive mixing: avs = avt

 zdf_drg_init : top and/or bottom drag setting
 ~~~~~~~~~~~~
    Namelist namdrg : top/bottom friction choices
       free-slip       : Cd = 0                  ln_OFF      =  T
       linear  drag    : Cd = Cd0                ln_lin      =  F
       non-linear  drag: Cd = Cd0_nl |U|         ln_non_lin  =  F
       logarithmic drag: Cd = vkarmn/log(z/z0)   ln_loglayer =  F
       implicit friction                         ln_drgimp   =  T

    Namelist namdrg_bot : set BOTTOM friction parameters
       drag coefficient                        rn_Cd0   =    1.0000000000000000E-003
       characteristic velocity (linear case)   rn_Uc0   =   0.40000000000000002       m/s
       non-linear drag maximum                 rn_Cdmax =   0.10000000000000001     
       background kinetic energy  (n-l case)   rn_ke0   =    2.5000000000000001E-003
       bottom roughness           (n-l case)   rn_z0    =    3.0000000000000001E-003
       set a regional boost of Cd0             ln_boost =  F
          associated boost factor              rn_boost =    50.000000000000000     

    ==>>>   BOTTOM free-slip, friction set to zero

 ldf_tra_init : lateral tracer diffusion
 ~~~~~~~~~~~~ 
    Namelist : namtra_ldf --- lateral mixing parameters (type, direction, coefficients)
       type :
          no explicit diffusion                   ln_traldf_OFF   =  T
          laplacian operator                      ln_traldf_lap   =  F
          bilaplacian operator                    ln_traldf_blp   =  F
       direction of action :
          iso-level                               ln_traldf_lev   =  F
          horizontal (geopotential)               ln_traldf_hor   =  F
          iso-neutral Madec operator              ln_traldf_iso   =  F
          iso-neutral triad operator              ln_traldf_triad =  F
             use the Method of Stab. Correction   ln_traldf_msc   =  F
             maximum isoppycnal slope             rn_slpmax       =    1.0000000000000000E-002
             pure lateral mixing in ML            ln_triad_iso    =  F
             switching triad or not               rn_sw_triad     =    1.0000000000000000     
             lateral mixing on bottom             ln_botmix_triad =  F
       coefficients :
          type of time-space variation            nn_aht_ijk_t    =            0
             lateral diffusive velocity (if cst)  rn_Ud           =    1.0000000000000000E-002  m/s
             lateral diffusive length   (if cst)  rn_Ld           =    200000.00000000000       m

    ==>>>   NO lateral diffusion

    ==>>>   No diffusive operator selected. ahtu and ahtv are not allocated

 ldf_eiv_init : eddy induced velocity parametrization
 ~~~~~~~~~~~~ 
    Namelist namtra_eiv : 
       Eddy Induced Velocity (eiv) param.         ln_ldfeiv     =  F
       eiv streamfunction & velocity diag.        ln_ldfeiv_dia =  F
       coefficients :
          type of time-space variation            nn_aei_ijk_t  =            0
          lateral diffusive velocity (if cst)     rn_Ue         =    2.0000000000000000E-002  m/s
          lateral diffusive length   (if cst)     rn_Le         =    200000.00000000000       m

    ==>>>   eddy induced velocity param is NOT used

 ldf_dyn : lateral momentum physics
 ~~~~~~~
    Namelist namdyn_ldf : set lateral mixing parameters
       type :
          no explicit diffusion                ln_dynldf_OFF =  T
          laplacian operator                   ln_dynldf_lap =  F
          bilaplacian operator                 ln_dynldf_blp =  F
       direction of action :
          iso-level                            ln_dynldf_lev =  F
          horizontal (geopotential)            ln_dynldf_hor =  F
          iso-neutral                          ln_dynldf_iso =  F
       coefficients :
          type of time-space variation         nn_ahm_ijk_t  =            0
          lateral viscous velocity  (if cst)      rn_Uv      =    2.0000000000000000       m/s
          lateral viscous length    (if cst)      rn_Lv      =    1000.0000000000000       m
          background viscosity (iso-lap case)     rn_ahm_b   =    0.0000000000000000       m2/s
       Smagorinsky settings (nn_ahm_ijk_t  = 32) :
          Smagorinsky coefficient              rn_csmc       =    3.5000000000000000     
          factor multiplier for eddy visc.
             lower limit (default 1.0)         rn_minfac    =    1.0000000000000000     
             upper limit (default 1.0)         rn_maxfac    =    1.0000000000000000     

    ==>>>   NO lateral viscosity

    ==>>>   No viscous operator selected. ahmt and ahmf are not allocated

 tra_bbc : Bottom Boundary Condition (bbc), apply a Geothermal heating
 ~~~~~~~   
    Namelist nambbc : set bbc parameters
       Apply a geothermal heating at ocean bottom   ln_trabbc     =  F
       type of geothermal flux                      nn_geoflx     =            2
       Constant geothermal flux value               rn_geoflx_cst =    8.6400000000000005E-002

    ==>>>   no geothermal heat flux

 tra_bbl_init : bottom boundary layer initialisation
 ~~~~~~~~~~~~
        Namelist nambbl : set bbl parameters
           bottom boundary layer flag          ln_trabbl  =  T
           diffusive bbl (=1)   or not (=0)    nn_bbl_ldf =            1
           advective bbl (=1/2) or not (=0)    nn_bbl_adv =            2
           diffusive bbl coefficient           rn_ahtbbl  =    1000.0000000000000       m2/s
           advective bbl coefficient           rn_gambbl  =    40.000000000000000       s
        * Advective BBL using velocity = F( delta rho)

 tra_dmp_init : T and S newtonian relaxation
 ~~~~~~~~~~~~
    Namelist namtra_dmp : set relaxation parameters
       Apply relaxation   or not       ln_tradmp   =  F
          mixed layer damping option      nn_zdmp  =            0
          Damping file name               cn_resto = resto.nc                                                                                                                                                                                                


 tra_adv_init : choice/control of the tracer advection scheme
 ~~~~~~~~~~~~
    Namelist namtra_adv : chose a advection scheme for tracers
       No advection on T & S                     ln_traadv_OFF =  F
       centered scheme                           ln_traadv_cen =  F
             horizontal 2nd/4th order               nn_cen_h   =            4
             vertical   2nd/4th order               nn_cen_v   =            4
       Flux Corrected Transport scheme           ln_traadv_fct =  T
             horizontal 2nd/4th order               nn_fct_h   =            4
             vertical   2nd/4th order               nn_fct_v   =            4
       MUSCL scheme                              ln_traadv_mus =  F
             + upstream scheme near river mouths    ln_mus_ups =  F
       UBS scheme                                ln_traadv_ubs =  F
             vertical   2nd/4th order               nn_ubs_v   =            2
       QUICKEST scheme                           ln_traadv_qck =  F

    ==>>>   FCT      scheme is used. Horizontal order:            4  Vertical   order:            4

 tra_mle_init : mixed layer eddy (MLE) advection acting on tracers
 ~~~~~~~~~~~~~
    Namelist namtra_mle : mixed layer eddy advection applied on tracers
       use mixed layer eddy (MLE, i.e. Fox-Kemper param) (T/F)      ln_mle       =  F
          MLE type: =0 standard Fox-Kemper ; =1 new formulation        nn_mle    =            1
          magnitude of the MLE (typical value: 0.06 to 0.08)           rn_ce     =    5.9999999999999998E-002
          scale of ML front (ML radius of deformation) (rn_mle=0)      rn_lf     =    5000.0000000000000      m
          maximum time scale of MLE                    (rn_mle=0)      rn_time   =    172800.00000000000      s
          reference latitude (degrees) of MLE coef.    (rn_mle=1)      rn_lat    =    20.000000000000000      deg
          space interp. of MLD at u-(v-)pts (0=min,1=averaged,2=max)   nn_mld_uv =            0
          =1 no MLE in case of convection ; =0 always MLE              nn_conv   =            0
          Density difference used to define ML for FK              rn_rho_c_mle  =    1.0000000000000000E-002

    ==>>>   Mixed Layer Eddy parametrisation NOT used

 tra_ldf_init : lateral tracer diffusive operator
 ~~~~~~~~~~~~
    Namelist namtra_ldf: already read in ldftra module
       see ldf_tra_init report for lateral mixing parameters

    ==>>>   NO lateral diffusion

 dyn_adv_init : choice/control of the momentum advection scheme
 ~~~~~~~~~~~~
    Namelist namdyn_adv : chose a advection formulation & scheme for momentum
       linear dynamics : no momentum advection          ln_dynadv_OFF  =  F
       Vector form: 2nd order centered scheme           ln_dynadv_vec  =  F
          with Hollingsworth scheme (=1) or not (=0)       nn_dynkeg   =            0
       flux form: 2nd order centred scheme              ln_dynadv_cen2 =  F
                  3rd order UBS scheme                  ln_dynadv_ubs  =  T

    ==>>>   flux form   : UBS       scheme is used

 dyn_vor_init : vorticity term : read namelist and control the consistency
 ~~~~~~~~~~~~
    Namelist namdyn_vor : choice of the vorticity term scheme
       enstrophy conserving scheme                    ln_dynvor_ens =  T
       f-point energy conserving scheme               ln_dynvor_ene =  F
       t-point energy conserving scheme               ln_dynvor_enT =  F
       energy conserving scheme  (een using e3t)      ln_dynvor_eeT =  F
       enstrophy and energy conserving scheme         ln_dynvor_een =  F
          e3f = averaging /4 (=0) or /sum(tmask) (=1)    nn_een_e3f =            0
       mixed enstrophy/energy conserving scheme       ln_dynvor_mix =  F
       masked (=T) or unmasked(=F) vorticity          ln_dynvor_msk =  F

       change fmask value in the angles (T)           ln_vorlat =  F

    ==>>>   flux form dynamics : total vorticity = Coriolis + metric term

    ==>>>   enstrophy conserving scheme (ENS)

 dyn_ldf_init : Choice of the lateral diffusive operator on dynamics
 ~~~~~~~~~~~~
    Namelist namdyn_ldf: already read in ldfdyn module
       see ldf_dyn_init report for lateral mixing parameters

    ==>>>   NO lateral viscosity

 dyn_hpg_init : hydrostatic pressure gradient initialisation
 ~~~~~~~~~~~~
    Namelist namdyn_hpg : choice of hpg scheme
       z-coord. - full steps                             ln_hpg_zco    =  F
       z-coord. - partial steps (interpolation)          ln_hpg_zps    =  F
       s-coord. (standard jacobian formulation)          ln_hpg_sco    =  T
       s-coord. (standard jacobian formulation) for isf  ln_hpg_isf    =  F
       s-coord. (Density Jacobian: Cubic polynomial)     ln_hpg_djc    =  F
       s-coord. (Pressure Jacobian: Cubic polynomial)    ln_hpg_prj    =  F

    ==>>>   s-coord. (standard jacobian formulation)


 dyn_spg_init : choice of the surface pressure gradient scheme
 ~~~~~~~~~~~~
    Namelist : namdyn_spg                    
       Explicit free surface                  ln_dynspg_exp =  F
       Free surface with time splitting       ln_dynspg_ts  =  T

    ==>>>   free surface with time splitting scheme

 dyn_spg_ts_init : split-explicit free surface
 ~~~~~~~~~~~~~~~
      ln_ts_auto =.true. Automatically set nn_baro 
      Max. courant number allowed:   0.80000000000000004     
      ln_bt_av =.true.  ==> Time averaging over nn_baro time steps is on 
      ln_bt_fw=.true.  => Forward integration of barotropic variables 
      Time filter choice, nn_bt_flt:            1
            Boxcar: width = nn_baro
  
      nn_baro =            8
      Barotropic time step [s] is :   112.50000000000000     
      Maximum Courant number is   :  0.78776714218892119     
      Time diffusion parameter rn_bt_alpha:    0.0000000000000000     

    ==>>>   start from rest: set barotropic values to 0

 icb_nam : iceberg initialization through namberg namelist read
 ~~~~~~~~ 

    ==>>>   No icebergs used

 sto_par_init : NO use of stochastic parameterization
 ~~~~~~~~~~~~

 flo_stp : call floats routine 
 ~~~~~~~

          Namelist floats :
             Activate floats or not                   ln_floats    =  F
                number of floats                      jpnfl        =            1
                number of new floats                  jpnflnewflo  =            0
                restart                               ln_rstflo    =  F
                frequency of float output file        nn_writefl   =           75
                frequency of float restart file       nn_stockfl   =         5475
                Argo type floats                      ln_argo      =  F
                Computation of T trajectories         ln_flork4    =  F
                Use of ariane convention              ln_ariane    =  T
                ascii output (T) or netcdf output (F) ln_flo_ascii =  T

 dia_ptr_init : poleward transport and msf initialization
 ~~~~~~~~~~~~
    Namelist namptr : set ptr parameters
       Poleward heat & salt transport (T) or not (F)      ln_diaptr  =  F
       Global (F) or glo/Atl/Pac/Ind/Indo-Pac basins      ln_subbas  =  F
  
 diadct_init: compute transports through sections 
 ~~~~~~~~~~~~~~~~~~~~~
        Calculate transport thru sections: ln_diadct =  F
        Frequency of computation:          nn_dct    =           15
        Frequency of write:                nn_dctwri =           15
        Debug section number:          112

 dia_hsb_init : heat and salt budgets diagnostics
 ~~~~~~~~~~~~ 
    Namelist  namhsb :
       check the heat and salt budgets (T) or not (F)       ln_diahsb =  F

 trd_init : Momentum/Tracers trends
 ~~~~~~~~
    Namelist namtrd : set trends parameters
       global domain averaged dyn & tra trends   ln_glo_trd  =  F
       U & V trends: 3D output                   ln_dyn_trd  =  F
       U & V trends: Mixed Layer averaged        ln_dyn_mxl  =  F
       T & S trends: 3D output                   ln_tra_trd  =  F
       T & S trends: Mixed Layer averaged        ln_tra_mxl  =  F
       Kinetic   Energy trends                   ln_KE_trd   =  F
       Potential Energy trends                   ln_PE_trd   =  F
       Barotropic vorticity trends               ln_vor_trd  =  F
       frequency of trends diagnostics (glo)     nn_trd      =          365

 dia_obs_init : NO Observation diagnostic used
 ~~~~~~~~~~~~

 dia_tmb_init : Output Top, Middle, Bottom Diagnostics
 ~~~~~~~~~~~~
    Namelist nam_diatmb : set tmb outputs 
       Switch for TMB diagnostics (T) or not (F)  ln_diatmb  =  F

 dia_25h_init : Output 25 hour mean diagnostics
 ~~~~~~~~~~~~
    Namelist nam_dia25h : set 25h outputs 
       Switch for 25h diagnostics (T) or not (F)  ln_dia25h  =  F

 dia_harm_init: Tidal harmonic analysis initialization
 ~~~~~~~ 
 Tidal diagnostics =  F
    First time step used for analysis:         nit000_han=            1
    Last  time step used for analysis:         nitend_han=           75
    Time step frequency for harmonic analysis: nstep_han =           15

AAAAAAAA


AAAAAAAA

  usr_sbc : SLOPE case: NO surface forcing
  ~~~~~~~~~~~   utau = vtau = taum = wndm = qns = qsr = emp = sfx = 0
           nit000-1 surface forcing fields set to nit000

 zdf_mxl : mixed layer depth
 ~~~~~~~ 

 ssh_nxt : after sea surface height
 ~~~~~~~ 

 div_hor : horizontal velocity divergence 
 ~~~~~~~   

 wzv : now vertical velocity 
 ~~~~~ 

 wAimp : Courant number-based partitioning of now vertical velocity 
 ~~~~~ 

 dyn_adv_ubs : UBS flux form momentum advection
 ~~~~~~~~~~~

 dyn:vor_ens : vorticity term: enstrophy conserving scheme
 ~~~~~~~~~~~

 dyn:hpg_sco : hydrostatic pressure gradient trend
 ~~~~~~~~~~~   s-coordinate case, OPA original scheme used

 dyn_spg_ts : surface pressure gradient trend
 ~~~~~~~~~~   free surface with time splitting


 div_hor : horizontal velocity divergence 
 ~~~~~~~   

 dyn_zdf_imp : vertical momentum diffusion implicit operator
 ~~~~~~~~~~~ 

 wzv : now vertical velocity 
 ~~~~~ 

 wAimp : Courant number-based partitioning of now vertical velocity 
 ~~~~~ 

 dia_wri_state : single instantaneous ocean state
 ~~~~~~~~~~~~~   and forcing fields file created 
                 and named :output.init...nc
                     iom_nf90_open ~~~ create new file: output.init.nc in WRITE mode
                    ---> output.init.nc OK
           iom_nf90_rp0123d, file: output.init.nc, var: votemper define dimension variables done
           iom_nf90_rp0123d, file: output.init.nc, var: votemper defined ok
           iom_nf90_rp0123d, file: output.init.nc, var: votemper write dimension variables done
           iom_nf90_rp0123d, file: output.init.nc, var: votemper written ok
           iom_nf90_rp0123d, file: output.init.nc, var: vosaline defined ok
           iom_nf90_rp0123d, file: output.init.nc, var: vosaline written ok
           iom_nf90_rp0123d, file: output.init.nc, var: sossheig defined ok
           iom_nf90_rp0123d, file: output.init.nc, var: sossheig written ok
           iom_nf90_rp0123d, file: output.init.nc, var: vozocrtx defined ok
           iom_nf90_rp0123d, file: output.init.nc, var: vozocrtx written ok
           iom_nf90_rp0123d, file: output.init.nc, var: vomecrty defined ok
           iom_nf90_rp0123d, file: output.init.nc, var: vomecrty written ok
           iom_nf90_rp0123d, file: output.init.nc, var: vovecrtz defined ok
           iom_nf90_rp0123d, file: output.init.nc, var: vovecrtz written ok
           iom_nf90_rp0123d, file: output.init.nc, var: sowaflup defined ok
           iom_nf90_rp0123d, file: output.init.nc, var: sowaflup written ok
           iom_nf90_rp0123d, file: output.init.nc, var: sohefldo defined ok
           iom_nf90_rp0123d, file: output.init.nc, var: sohefldo written ok
           iom_nf90_rp0123d, file: output.init.nc, var: soshfldo defined ok
           iom_nf90_rp0123d, file: output.init.nc, var: soshfldo written ok
           iom_nf90_rp0123d, file: output.init.nc, var: soicecov defined ok
           iom_nf90_rp0123d, file: output.init.nc, var: soicecov written ok
           iom_nf90_rp0123d, file: output.init.nc, var: sozotaux defined ok
           iom_nf90_rp0123d, file: output.init.nc, var: sozotaux written ok
           iom_nf90_rp0123d, file: output.init.nc, var: sometauy defined ok
           iom_nf90_rp0123d, file: output.init.nc, var: sometauy written ok
                     iom_close ~~~ close file: output.init.nc ok

 tra_sbc : TRAcer Surface Boundary Condition
 ~~~~~~~ 

 trabbl:bbl : Compute bbl velocities and diffusive coefficients in TRA
 ~~~~~~~~~~

 tra_adv_fct : FCT advection scheme on TRA
 ~~~~~~~~~~~

 tra_zdf : implicit vertical mixing on T & S
 ~~~~~~~ 

 tra_nxt : achieve the time stepping by Asselin filter and array swap
 ~~~~~~~

 dyn_nxt : time stepping
 ~~~~~~~

 ssh_swp : Asselin time filter and swap of sea surface height
 ~~~~~~~ 

 stp_ctl : time-stepping control
 ~~~~~~~
      file   : time.step open ok
      unit   =           21
      status = REPLACE
      form   = FORMATTED
      access = SEQUENTIAL

======>> time-step =      97      New day, DATE Y/M/D = 0001/01/02      nday_year = 002
         nsec_year =    86850   nsec_month =   86850   nsec_day =   450
   nsec_week =   518850
======>> time-step =     193      New day, DATE Y/M/D = 0001/01/03      nday_year = 003
         nsec_year =   173250   nsec_month =  173250   nsec_day =   450
   nsec_week =   605250
======>> time-step =     289      New day, DATE Y/M/D = 0001/01/04      nday_year = 004
         nsec_year =   259650   nsec_month =  259650   nsec_day =   450
   nsec_week =    86850
======>> time-step =     385      New day, DATE Y/M/D = 0001/01/05      nday_year = 005
         nsec_year =   346050   nsec_month =  346050   nsec_day =   450
   nsec_week =   173250
======>> time-step =     481      New day, DATE Y/M/D = 0001/01/06      nday_year = 006
         nsec_year =   432450   nsec_month =  432450   nsec_day =   450
   nsec_week =   259650
======>> time-step =     577      New day, DATE Y/M/D = 0001/01/07      nday_year = 007
         nsec_year =   518850   nsec_month =  518850   nsec_day =   450
   nsec_week =   346050
======>> time-step =     673      New day, DATE Y/M/D = 0001/01/08      nday_year = 008
         nsec_year =   605250   nsec_month =  605250   nsec_day =   450
   nsec_week =   432450
======>> time-step =     769      New day, DATE Y/M/D = 0001/01/09      nday_year = 009
         nsec_year =   691650   nsec_month =  691650   nsec_day =   450
   nsec_week =   518850
======>> time-step =     865      New day, DATE Y/M/D = 0001/01/10      nday_year = 010
         nsec_year =   778050   nsec_month =  778050   nsec_day =   450
   nsec_week =   605250
======>> time-step =     961      New day, DATE Y/M/D = 0001/01/11      nday_year = 011
         nsec_year =   864450   nsec_month =  864450   nsec_day =   450
   nsec_week =    86850
======>> time-step =    1057      New day, DATE Y/M/D = 0001/01/12      nday_year = 012
         nsec_year =   950850   nsec_month =  950850   nsec_day =   450
   nsec_week =   173250
======>> time-step =    1153      New day, DATE Y/M/D = 0001/01/13      nday_year = 013
         nsec_year =  1037250   nsec_month = 1037250   nsec_day =   450
   nsec_week =   259650
======>> time-step =    1249      New day, DATE Y/M/D = 0001/01/14      nday_year = 014
         nsec_year =  1123650   nsec_month = 1123650   nsec_day =   450
   nsec_week =   346050
======>> time-step =    1345      New day, DATE Y/M/D = 0001/01/15      nday_year = 015
         nsec_year =  1210050   nsec_month = 1210050   nsec_day =   450
   nsec_week =   432450
======>> time-step =    1441      New day, DATE Y/M/D = 0001/01/16      nday_year = 016
         nsec_year =  1296450   nsec_month = 1296450   nsec_day =   450
   nsec_week =   518850
======>> time-step =    1537      New day, DATE Y/M/D = 0001/01/17      nday_year = 017
         nsec_year =  1382850   nsec_month = 1382850   nsec_day =   450
   nsec_week =   605250
======>> time-step =    1633      New day, DATE Y/M/D = 0001/01/18      nday_year = 018
         nsec_year =  1469250   nsec_month = 1469250   nsec_day =   450
   nsec_week =    86850
======>> time-step =    1729      New day, DATE Y/M/D = 0001/01/19      nday_year = 019
         nsec_year =  1555650   nsec_month = 1555650   nsec_day =   450
   nsec_week =   173250
======>> time-step =    1825      New day, DATE Y/M/D = 0001/01/20      nday_year = 020
         nsec_year =  1642050   nsec_month = 1642050   nsec_day =   450
   nsec_week =   259650
======>> time-step =    1921      New day, DATE Y/M/D = 0001/01/21      nday_year = 021
         nsec_year =  1728450   nsec_month = 1728450   nsec_day =   450
   nsec_week =   346050
======>> time-step =    2017      New day, DATE Y/M/D = 0001/01/22      nday_year = 022
         nsec_year =  1814850   nsec_month = 1814850   nsec_day =   450
   nsec_week =   432450
======>> time-step =    2113      New day, DATE Y/M/D = 0001/01/23      nday_year = 023
         nsec_year =  1901250   nsec_month = 1901250   nsec_day =   450
   nsec_week =   518850
======>> time-step =    2209      New day, DATE Y/M/D = 0001/01/24      nday_year = 024
         nsec_year =  1987650   nsec_month = 1987650   nsec_day =   450
   nsec_week =   605250
======>> time-step =    2305      New day, DATE Y/M/D = 0001/01/25      nday_year = 025
         nsec_year =  2074050   nsec_month = 2074050   nsec_day =   450
   nsec_week =    86850
======>> time-step =    2401      New day, DATE Y/M/D = 0001/01/26      nday_year = 026
         nsec_year =  2160450   nsec_month = 2160450   nsec_day =   450
   nsec_week =   173250
======>> time-step =    2497      New day, DATE Y/M/D = 0001/01/27      nday_year = 027
         nsec_year =  2246850   nsec_month = 2246850   nsec_day =   450
   nsec_week =   259650
======>> time-step =    2593      New day, DATE Y/M/D = 0001/01/28      nday_year = 028
         nsec_year =  2333250   nsec_month = 2333250   nsec_day =   450
   nsec_week =   346050
======>> time-step =    2689      New day, DATE Y/M/D = 0001/01/29      nday_year = 029
         nsec_year =  2419650   nsec_month = 2419650   nsec_day =   450
   nsec_week =   432450
======>> time-step =    2785      New day, DATE Y/M/D = 0001/01/30      nday_year = 030
         nsec_year =  2506050   nsec_month = 2506050   nsec_day =   450
   nsec_week =   518850
======>> time-step =    2881      New day, DATE Y/M/D = 0001/01/31      nday_year = 031
         nsec_year =  2592450   nsec_month = 2592450   nsec_day =   450
   nsec_week =   605250
======>> time-step =    2977      New day, DATE Y/M/D = 0001/02/01      nday_year = 032
         nsec_year =  2678850   nsec_month =     450   nsec_day =   450
   nsec_week =    86850
======>> time-step =    3073      New day, DATE Y/M/D = 0001/02/02      nday_year = 033
         nsec_year =  2765250   nsec_month =   86850   nsec_day =   450
   nsec_week =   173250
======>> time-step =    3169      New day, DATE Y/M/D = 0001/02/03      nday_year = 034
         nsec_year =  2851650   nsec_month =  173250   nsec_day =   450
   nsec_week =   259650
======>> time-step =    3265      New day, DATE Y/M/D = 0001/02/04      nday_year = 035
         nsec_year =  2938050   nsec_month =  259650   nsec_day =   450
   nsec_week =   346050
======>> time-step =    3361      New day, DATE Y/M/D = 0001/02/05      nday_year = 036
         nsec_year =  3024450   nsec_month =  346050   nsec_day =   450
   nsec_week =   432450
======>> time-step =    3457      New day, DATE Y/M/D = 0001/02/06      nday_year = 037
         nsec_year =  3110850   nsec_month =  432450   nsec_day =   450
   nsec_week =   518850
======>> time-step =    3553      New day, DATE Y/M/D = 0001/02/07      nday_year = 038
         nsec_year =  3197250   nsec_month =  518850   nsec_day =   450
   nsec_week =   605250
======>> time-step =    3649      New day, DATE Y/M/D = 0001/02/08      nday_year = 039
         nsec_year =  3283650   nsec_month =  605250   nsec_day =   450
   nsec_week =    86850
======>> time-step =    3745      New day, DATE Y/M/D = 0001/02/09      nday_year = 040
         nsec_year =  3370050   nsec_month =  691650   nsec_day =   450
   nsec_week =   173250
======>> time-step =    3841      New day, DATE Y/M/D = 0001/02/10      nday_year = 041
         nsec_year =  3456450   nsec_month =  778050   nsec_day =   450
   nsec_week =   259650
======>> time-step =    3937      New day, DATE Y/M/D = 0001/02/11      nday_year = 042
         nsec_year =  3542850   nsec_month =  864450   nsec_day =   450
   nsec_week =   346050
======>> time-step =    4033      New day, DATE Y/M/D = 0001/02/12      nday_year = 043
         nsec_year =  3629250   nsec_month =  950850   nsec_day =   450
   nsec_week =   432450
======>> time-step =    4129      New day, DATE Y/M/D = 0001/02/13      nday_year = 044
         nsec_year =  3715650   nsec_month = 1037250   nsec_day =   450
   nsec_week =   518850
======>> time-step =    4225      New day, DATE Y/M/D = 0001/02/14      nday_year = 045
         nsec_year =  3802050   nsec_month = 1123650   nsec_day =   450
   nsec_week =   605250
======>> time-step =    4321      New day, DATE Y/M/D = 0001/02/15      nday_year = 046
         nsec_year =  3888450   nsec_month = 1210050   nsec_day =   450
   nsec_week =    86850
======>> time-step =    4417      New day, DATE Y/M/D = 0001/02/16      nday_year = 047
         nsec_year =  3974850   nsec_month = 1296450   nsec_day =   450
   nsec_week =   173250
======>> time-step =    4513      New day, DATE Y/M/D = 0001/02/17      nday_year = 048
         nsec_year =  4061250   nsec_month = 1382850   nsec_day =   450
   nsec_week =   259650
======>> time-step =    4609      New day, DATE Y/M/D = 0001/02/18      nday_year = 049
         nsec_year =  4147650   nsec_month = 1469250   nsec_day =   450
   nsec_week =   346050
======>> time-step =    4705      New day, DATE Y/M/D = 0001/02/19      nday_year = 050
         nsec_year =  4234050   nsec_month = 1555650   nsec_day =   450
   nsec_week =   432450
======>> time-step =    4801      New day, DATE Y/M/D = 0001/02/20      nday_year = 051
         nsec_year =  4320450   nsec_month = 1642050   nsec_day =   450
   nsec_week =   518850
======>> time-step =    4897      New day, DATE Y/M/D = 0001/02/21      nday_year = 052
         nsec_year =  4406850   nsec_month = 1728450   nsec_day =   450
   nsec_week =   605250
======>> time-step =    4993      New day, DATE Y/M/D = 0001/02/22      nday_year = 053
         nsec_year =  4493250   nsec_month = 1814850   nsec_day =   450
   nsec_week =    86850
======>> time-step =    5089      New day, DATE Y/M/D = 0001/02/23      nday_year = 054
         nsec_year =  4579650   nsec_month = 1901250   nsec_day =   450
   nsec_week =   173250
======>> time-step =    5185      New day, DATE Y/M/D = 0001/02/24      nday_year = 055
         nsec_year =  4666050   nsec_month = 1987650   nsec_day =   450
   nsec_week =   259650
======>> time-step =    5281      New day, DATE Y/M/D = 0001/02/25      nday_year = 056
         nsec_year =  4752450   nsec_month = 2074050   nsec_day =   450
   nsec_week =   346050
======>> time-step =    5377      New day, DATE Y/M/D = 0001/02/26      nday_year = 057
         nsec_year =  4838850   nsec_month = 2160450   nsec_day =   450
   nsec_week =   432450
======>> time-step =    5473      New day, DATE Y/M/D = 0001/02/27      nday_year = 058
         nsec_year =  4925250   nsec_month = 2246850   nsec_day =   450
   nsec_week =   518850
======>> time-step =    5569      New day, DATE Y/M/D = 0001/02/28      nday_year = 059
         nsec_year =  5011650   nsec_month = 2333250   nsec_day =   450
   nsec_week =   605250
======>> time-step =    5665      New day, DATE Y/M/D = 0001/03/01      nday_year = 060
         nsec_year =  5098050   nsec_month =     450   nsec_day =   450
   nsec_week =    86850
======>> time-step =    5761      New day, DATE Y/M/D = 0001/03/02      nday_year = 061
         nsec_year =  5184450   nsec_month =   86850   nsec_day =   450
   nsec_week =   173250
======>> time-step =    5857      New day, DATE Y/M/D = 0001/03/03      nday_year = 062
         nsec_year =  5270850   nsec_month =  173250   nsec_day =   450
   nsec_week =   259650
======>> time-step =    5953      New day, DATE Y/M/D = 0001/03/04      nday_year = 063
         nsec_year =  5357250   nsec_month =  259650   nsec_day =   450
   nsec_week =   346050
======>> time-step =    6049      New day, DATE Y/M/D = 0001/03/05      nday_year = 064
         nsec_year =  5443650   nsec_month =  346050   nsec_day =   450
   nsec_week =   432450

              open ocean restart NetCDF file: ./SLO_FCT4_flux_ubs_00006120_restart
              kt = nitrst - 1 =         6119
                     iom_nf90_open ~~~ create new file: ./SLO_FCT4_flux_ubs_00006120_restart.nc in WRITE mode
                    ---> ./SLO_FCT4_flux_ubs_00006120_restart.nc OK
           iom_nf90_rp0123d, file: ./SLO_FCT4_flux_ubs_00006120_restart.nc, var: kt define dimension variables done
           iom_nf90_rp0123d, file: ./SLO_FCT4_flux_ubs_00006120_restart.nc, var: kt defined ok
           iom_nf90_rp0123d, file: ./SLO_FCT4_flux_ubs_00006120_restart.nc, var: ndastp defined ok
           iom_nf90_rp0123d, file: ./SLO_FCT4_flux_ubs_00006120_restart.nc, var: adatrj defined ok
           iom_nf90_rp0123d, file: ./SLO_FCT4_flux_ubs_00006120_restart.nc, var: ntime defined ok

 sbc : ocean surface forcing fields written in ocean restart file at it=         6119  date=        10305
 ~~~~
           iom_nf90_rp0123d, file: ./SLO_FCT4_flux_ubs_00006120_restart.nc, var: utau_b defined ok
           iom_nf90_rp0123d, file: ./SLO_FCT4_flux_ubs_00006120_restart.nc, var: vtau_b defined ok
           iom_nf90_rp0123d, file: ./SLO_FCT4_flux_ubs_00006120_restart.nc, var: qns_b defined ok
           iom_nf90_rp0123d, file: ./SLO_FCT4_flux_ubs_00006120_restart.nc, var: emp_b defined ok
           iom_nf90_rp0123d, file: ./SLO_FCT4_flux_ubs_00006120_restart.nc, var: sfx_b defined ok
 ---- ts_rst ----
           iom_nf90_rp0123d, file: ./SLO_FCT4_flux_ubs_00006120_restart.nc, var: ub2_b defined ok
           iom_nf90_rp0123d, file: ./SLO_FCT4_flux_ubs_00006120_restart.nc, var: vb2_b defined ok
           iom_nf90_rp0123d, file: ./SLO_FCT4_flux_ubs_00006120_restart.nc, var: un_bf defined ok
           iom_nf90_rp0123d, file: ./SLO_FCT4_flux_ubs_00006120_restart.nc, var: vn_bf defined ok
           iom_nf90_rp0123d, file: ./SLO_FCT4_flux_ubs_00006120_restart.nc, var: sbc_hc_b defined ok
           iom_nf90_rp0123d, file: ./SLO_FCT4_flux_ubs_00006120_restart.nc, var: sbc_sc_b defined ok
           iom_nf90_rp0123d, file: ./SLO_FCT4_flux_ubs_00006120_restart.nc, var: rdt defined ok
           iom_nf90_rp0123d, file: ./SLO_FCT4_flux_ubs_00006120_restart.nc, var: ub defined ok
           iom_nf90_rp0123d, file: ./SLO_FCT4_flux_ubs_00006120_restart.nc, var: vb defined ok
           iom_nf90_rp0123d, file: ./SLO_FCT4_flux_ubs_00006120_restart.nc, var: tb defined ok
           iom_nf90_rp0123d, file: ./SLO_FCT4_flux_ubs_00006120_restart.nc, var: sb defined ok
           iom_nf90_rp0123d, file: ./SLO_FCT4_flux_ubs_00006120_restart.nc, var: sshb defined ok
           iom_nf90_rp0123d, file: ./SLO_FCT4_flux_ubs_00006120_restart.nc, var: un defined ok
           iom_nf90_rp0123d, file: ./SLO_FCT4_flux_ubs_00006120_restart.nc, var: vn defined ok
           iom_nf90_rp0123d, file: ./SLO_FCT4_flux_ubs_00006120_restart.nc, var: tn defined ok
           iom_nf90_rp0123d, file: ./SLO_FCT4_flux_ubs_00006120_restart.nc, var: sn defined ok
           iom_nf90_rp0123d, file: ./SLO_FCT4_flux_ubs_00006120_restart.nc, var: sshn defined ok
           iom_nf90_rp0123d, file: ./SLO_FCT4_flux_ubs_00006120_restart.nc, var: rhop defined ok

 rst_write : write oce restart file  kt =        6120
 ~~~~~~~
           iom_nf90_rp0123d, file: ./SLO_FCT4_flux_ubs_00006120_restart.nc, var: kt written ok
           iom_nf90_rp0123d, file: ./SLO_FCT4_flux_ubs_00006120_restart.nc, var: ndastp written ok
           iom_nf90_rp0123d, file: ./SLO_FCT4_flux_ubs_00006120_restart.nc, var: adatrj written ok
           iom_nf90_rp0123d, file: ./SLO_FCT4_flux_ubs_00006120_restart.nc, var: ntime written ok

 sbc : ocean surface forcing fields written in ocean restart file at it=         6120  date=        10305
 ~~~~
           iom_nf90_rp0123d, file: ./SLO_FCT4_flux_ubs_00006120_restart.nc, var: utau_b write dimension variables done
           iom_nf90_rp0123d, file: ./SLO_FCT4_flux_ubs_00006120_restart.nc, var: utau_b written ok
           iom_nf90_rp0123d, file: ./SLO_FCT4_flux_ubs_00006120_restart.nc, var: vtau_b written ok
           iom_nf90_rp0123d, file: ./SLO_FCT4_flux_ubs_00006120_restart.nc, var: qns_b written ok
           iom_nf90_rp0123d, file: ./SLO_FCT4_flux_ubs_00006120_restart.nc, var: emp_b written ok
           iom_nf90_rp0123d, file: ./SLO_FCT4_flux_ubs_00006120_restart.nc, var: sfx_b written ok
 ---- ts_rst ----
           iom_nf90_rp0123d, file: ./SLO_FCT4_flux_ubs_00006120_restart.nc, var: ub2_b written ok
           iom_nf90_rp0123d, file: ./SLO_FCT4_flux_ubs_00006120_restart.nc, var: vb2_b written ok
           iom_nf90_rp0123d, file: ./SLO_FCT4_flux_ubs_00006120_restart.nc, var: un_bf written ok
           iom_nf90_rp0123d, file: ./SLO_FCT4_flux_ubs_00006120_restart.nc, var: vn_bf written ok
           iom_nf90_rp0123d, file: ./SLO_FCT4_flux_ubs_00006120_restart.nc, var: sbc_hc_b written ok
           iom_nf90_rp0123d, file: ./SLO_FCT4_flux_ubs_00006120_restart.nc, var: sbc_sc_b written ok
           iom_nf90_rp0123d, file: ./SLO_FCT4_flux_ubs_00006120_restart.nc, var: rdt written ok
           iom_nf90_rp0123d, file: ./SLO_FCT4_flux_ubs_00006120_restart.nc, var: ub written ok
           iom_nf90_rp0123d, file: ./SLO_FCT4_flux_ubs_00006120_restart.nc, var: vb written ok
           iom_nf90_rp0123d, file: ./SLO_FCT4_flux_ubs_00006120_restart.nc, var: tb written ok
           iom_nf90_rp0123d, file: ./SLO_FCT4_flux_ubs_00006120_restart.nc, var: sb written ok
           iom_nf90_rp0123d, file: ./SLO_FCT4_flux_ubs_00006120_restart.nc, var: sshb written ok
           iom_nf90_rp0123d, file: ./SLO_FCT4_flux_ubs_00006120_restart.nc, var: un written ok
           iom_nf90_rp0123d, file: ./SLO_FCT4_flux_ubs_00006120_restart.nc, var: vn written ok
           iom_nf90_rp0123d, file: ./SLO_FCT4_flux_ubs_00006120_restart.nc, var: tn written ok
           iom_nf90_rp0123d, file: ./SLO_FCT4_flux_ubs_00006120_restart.nc, var: sn written ok
           iom_nf90_rp0123d, file: ./SLO_FCT4_flux_ubs_00006120_restart.nc, var: sshn written ok
           iom_nf90_rp0123d, file: ./SLO_FCT4_flux_ubs_00006120_restart.nc, var: rhop written ok
                     iom_close ~~~ close file: ./SLO_FCT4_flux_ubs_00006120_restart.nc ok
======>> time-step =    6145      New day, DATE Y/M/D = 0001/03/06      nday_year = 065
         nsec_year =  5530050   nsec_month =  432450   nsec_day =   450
   nsec_week =   518850
======>> time-step =    6241      New day, DATE Y/M/D = 0001/03/07      nday_year = 066
         nsec_year =  5616450   nsec_month =  518850   nsec_day =   450
   nsec_week =   605250
======>> time-step =    6337      New day, DATE Y/M/D = 0001/03/08      nday_year = 067
         nsec_year =  5702850   nsec_month =  605250   nsec_day =   450
   nsec_week =    86850
======>> time-step =    6433      New day, DATE Y/M/D = 0001/03/09      nday_year = 068
         nsec_year =  5789250   nsec_month =  691650   nsec_day =   450
   nsec_week =   173250
======>> time-step =    6529      New day, DATE Y/M/D = 0001/03/10      nday_year = 069
         nsec_year =  5875650   nsec_month =  778050   nsec_day =   450
   nsec_week =   259650
======>> time-step =    6625      New day, DATE Y/M/D = 0001/03/11      nday_year = 070
         nsec_year =  5962050   nsec_month =  864450   nsec_day =   450
   nsec_week =   346050
======>> time-step =    6721      New day, DATE Y/M/D = 0001/03/12      nday_year = 071
         nsec_year =  6048450   nsec_month =  950850   nsec_day =   450
   nsec_week =   432450
======>> time-step =    6817      New day, DATE Y/M/D = 0001/03/13      nday_year = 072
         nsec_year =  6134850   nsec_month = 1037250   nsec_day =   450
   nsec_week =   518850
======>> time-step =    6913      New day, DATE Y/M/D = 0001/03/14      nday_year = 073
         nsec_year =  6221250   nsec_month = 1123650   nsec_day =   450
   nsec_week =   605250
======>> time-step =    7009      New day, DATE Y/M/D = 0001/03/15      nday_year = 074
         nsec_year =  6307650   nsec_month = 1210050   nsec_day =   450
   nsec_week =    86850
======>> time-step =    7105      New day, DATE Y/M/D = 0001/03/16      nday_year = 075
         nsec_year =  6394050   nsec_month = 1296450   nsec_day =   450
   nsec_week =   173250
======>> time-step =    7201      New day, DATE Y/M/D = 0001/03/17      nday_year = 076
         nsec_year =  6480450   nsec_month = 1382850   nsec_day =   450
   nsec_week =   259650
======>> time-step =    7297      New day, DATE Y/M/D = 0001/03/18      nday_year = 077
         nsec_year =  6566850   nsec_month = 1469250   nsec_day =   450
   nsec_week =   346050
======>> time-step =    7393      New day, DATE Y/M/D = 0001/03/19      nday_year = 078
         nsec_year =  6653250   nsec_month = 1555650   nsec_day =   450
   nsec_week =   432450
======>> time-step =    7489      New day, DATE Y/M/D = 0001/03/20      nday_year = 079
         nsec_year =  6739650   nsec_month = 1642050   nsec_day =   450
   nsec_week =   518850
======>> time-step =    7585      New day, DATE Y/M/D = 0001/03/21      nday_year = 080
         nsec_year =  6826050   nsec_month = 1728450   nsec_day =   450
   nsec_week =   605250
======>> time-step =    7681      New day, DATE Y/M/D = 0001/03/22      nday_year = 081
         nsec_year =  6912450   nsec_month = 1814850   nsec_day =   450
   nsec_week =    86850
======>> time-step =    7777      New day, DATE Y/M/D = 0001/03/23      nday_year = 082
         nsec_year =  6998850   nsec_month = 1901250   nsec_day =   450
   nsec_week =   173250
======>> time-step =    7873      New day, DATE Y/M/D = 0001/03/24      nday_year = 083
         nsec_year =  7085250   nsec_month = 1987650   nsec_day =   450
   nsec_week =   259650
======>> time-step =    7969      New day, DATE Y/M/D = 0001/03/25      nday_year = 084
         nsec_year =  7171650   nsec_month = 2074050   nsec_day =   450
   nsec_week =   346050
======>> time-step =    8065      New day, DATE Y/M/D = 0001/03/26      nday_year = 085
         nsec_year =  7258050   nsec_month = 2160450   nsec_day =   450
   nsec_week =   432450
======>> time-step =    8161      New day, DATE Y/M/D = 0001/03/27      nday_year = 086
         nsec_year =  7344450   nsec_month = 2246850   nsec_day =   450
   nsec_week =   518850
======>> time-step =    8257      New day, DATE Y/M/D = 0001/03/28      nday_year = 087
         nsec_year =  7430850   nsec_month = 2333250   nsec_day =   450
   nsec_week =   605250
======>> time-step =    8353      New day, DATE Y/M/D = 0001/03/29      nday_year = 088
         nsec_year =  7517250   nsec_month = 2419650   nsec_day =   450
   nsec_week =    86850
======>> time-step =    8449      New day, DATE Y/M/D = 0001/03/30      nday_year = 089
         nsec_year =  7603650   nsec_month = 2506050   nsec_day =   450
   nsec_week =   173250
======>> time-step =    8545      New day, DATE Y/M/D = 0001/03/31      nday_year = 090
         nsec_year =  7690050   nsec_month = 2592450   nsec_day =   450
   nsec_week =   259650
======>> time-step =    8641      New day, DATE Y/M/D = 0001/04/01      nday_year = 091
         nsec_year =  7776450   nsec_month =     450   nsec_day =   450
   nsec_week =   346050
======>> time-step =    8737      New day, DATE Y/M/D = 0001/04/02      nday_year = 092
         nsec_year =  7862850   nsec_month =   86850   nsec_day =   450
   nsec_week =   432450
======>> time-step =    8833      New day, DATE Y/M/D = 0001/04/03      nday_year = 093
         nsec_year =  7949250   nsec_month =  173250   nsec_day =   450
   nsec_week =   518850
======>> time-step =    8929      New day, DATE Y/M/D = 0001/04/04      nday_year = 094
         nsec_year =  8035650   nsec_month =  259650   nsec_day =   450
   nsec_week =   605250
======>> time-step =    9025      New day, DATE Y/M/D = 0001/04/05      nday_year = 095
         nsec_year =  8122050   nsec_month =  346050   nsec_day =   450
   nsec_week =    86850
======>> time-step =    9121      New day, DATE Y/M/D = 0001/04/06      nday_year = 096
         nsec_year =  8208450   nsec_month =  432450   nsec_day =   450
   nsec_week =   173250
======>> time-step =    9217      New day, DATE Y/M/D = 0001/04/07      nday_year = 097
         nsec_year =  8294850   nsec_month =  518850   nsec_day =   450
   nsec_week =   259650
======>> time-step =    9313      New day, DATE Y/M/D = 0001/04/08      nday_year = 098
         nsec_year =  8381250   nsec_month =  605250   nsec_day =   450
   nsec_week =   346050
======>> time-step =    9409      New day, DATE Y/M/D = 0001/04/09      nday_year = 099
         nsec_year =  8467650   nsec_month =  691650   nsec_day =   450
   nsec_week =   432450
======>> time-step =    9505      New day, DATE Y/M/D = 0001/04/10      nday_year = 100
         nsec_year =  8554050   nsec_month =  778050   nsec_day =   450
   nsec_week =   518850
======>> time-step =    9601      New day, DATE Y/M/D = 0001/04/11      nday_year = 101
         nsec_year =  8640450   nsec_month =  864450   nsec_day =   450
   nsec_week =   605250
======>> time-step =    9697      New day, DATE Y/M/D = 0001/04/12      nday_year = 102
         nsec_year =  8726850   nsec_month =  950850   nsec_day =   450
   nsec_week =    86850
======>> time-step =    9793      New day, DATE Y/M/D = 0001/04/13      nday_year = 103
         nsec_year =  8813250   nsec_month = 1037250   nsec_day =   450
   nsec_week =   173250
======>> time-step =    9889      New day, DATE Y/M/D = 0001/04/14      nday_year = 104
         nsec_year =  8899650   nsec_month = 1123650   nsec_day =   450
   nsec_week =   259650
======>> time-step =    9985      New day, DATE Y/M/D = 0001/04/15      nday_year = 105
         nsec_year =  8986050   nsec_month = 1210050   nsec_day =   450
   nsec_week =   346050
======>> time-step =   10081      New day, DATE Y/M/D = 0001/04/16      nday_year = 106
         nsec_year =  9072450   nsec_month = 1296450   nsec_day =   450
   nsec_week =   432450
======>> time-step =   10177      New day, DATE Y/M/D = 0001/04/17      nday_year = 107
         nsec_year =  9158850   nsec_month = 1382850   nsec_day =   450
   nsec_week =   518850
======>> time-step =   10273      New day, DATE Y/M/D = 0001/04/18      nday_year = 108
         nsec_year =  9245250   nsec_month = 1469250   nsec_day =   450
   nsec_week =   605250
======>> time-step =   10369      New day, DATE Y/M/D = 0001/04/19      nday_year = 109
         nsec_year =  9331650   nsec_month = 1555650   nsec_day =   450
   nsec_week =    86850
======>> time-step =   10465      New day, DATE Y/M/D = 0001/04/20      nday_year = 110
         nsec_year =  9418050   nsec_month = 1642050   nsec_day =   450
   nsec_week =   173250
======>> time-step =   10561      New day, DATE Y/M/D = 0001/04/21      nday_year = 111
         nsec_year =  9504450   nsec_month = 1728450   nsec_day =   450
   nsec_week =   259650
======>> time-step =   10657      New day, DATE Y/M/D = 0001/04/22      nday_year = 112
         nsec_year =  9590850   nsec_month = 1814850   nsec_day =   450
   nsec_week =   346050
======>> time-step =   10753      New day, DATE Y/M/D = 0001/04/23      nday_year = 113
         nsec_year =  9677250   nsec_month = 1901250   nsec_day =   450
   nsec_week =   432450
======>> time-step =   10849      New day, DATE Y/M/D = 0001/04/24      nday_year = 114
         nsec_year =  9763650   nsec_month = 1987650   nsec_day =   450
   nsec_week =   518850
======>> time-step =   10945      New day, DATE Y/M/D = 0001/04/25      nday_year = 115
         nsec_year =  9850050   nsec_month = 2074050   nsec_day =   450
   nsec_week =   605250
======>> time-step =   11041      New day, DATE Y/M/D = 0001/04/26      nday_year = 116
         nsec_year =  9936450   nsec_month = 2160450   nsec_day =   450
   nsec_week =    86850
======>> time-step =   11137      New day, DATE Y/M/D = 0001/04/27      nday_year = 117
         nsec_year = 10022850   nsec_month = 2246850   nsec_day =   450
   nsec_week =   173250
======>> time-step =   11233      New day, DATE Y/M/D = 0001/04/28      nday_year = 118
         nsec_year = 10109250   nsec_month = 2333250   nsec_day =   450
   nsec_week =   259650
======>> time-step =   11329      New day, DATE Y/M/D = 0001/04/29      nday_year = 119
         nsec_year = 10195650   nsec_month = 2419650   nsec_day =   450
   nsec_week =   346050
======>> time-step =   11425      New day, DATE Y/M/D = 0001/04/30      nday_year = 120
         nsec_year = 10282050   nsec_month = 2506050   nsec_day =   450
   nsec_week =   432450
======>> time-step =   11521      New day, DATE Y/M/D = 0001/05/01      nday_year = 121
         nsec_year = 10368450   nsec_month =     450   nsec_day =   450
   nsec_week =   518850
======>> time-step =   11617      New day, DATE Y/M/D = 0001/05/02      nday_year = 122
         nsec_year = 10454850   nsec_month =   86850   nsec_day =   450
   nsec_week =   605250
======>> time-step =   11713      New day, DATE Y/M/D = 0001/05/03      nday_year = 123
         nsec_year = 10541250   nsec_month =  173250   nsec_day =   450
   nsec_week =    86850
======>> time-step =   11809      New day, DATE Y/M/D = 0001/05/04      nday_year = 124
         nsec_year = 10627650   nsec_month =  259650   nsec_day =   450
   nsec_week =   173250
======>> time-step =   11905      New day, DATE Y/M/D = 0001/05/05      nday_year = 125
         nsec_year = 10714050   nsec_month =  346050   nsec_day =   450
   nsec_week =   259650
======>> time-step =   12001      New day, DATE Y/M/D = 0001/05/06      nday_year = 126
         nsec_year = 10800450   nsec_month =  432450   nsec_day =   450
   nsec_week =   346050
======>> time-step =   12097      New day, DATE Y/M/D = 0001/05/07      nday_year = 127
         nsec_year = 10886850   nsec_month =  518850   nsec_day =   450
   nsec_week =   432450
======>> time-step =   12193      New day, DATE Y/M/D = 0001/05/08      nday_year = 128
         nsec_year = 10973250   nsec_month =  605250   nsec_day =   450
   nsec_week =   518850

              open ocean restart NetCDF file: ./SLO_FCT4_flux_ubs_00012240_restart
              kt = nitrst - 1 =        12239
                     iom_nf90_open ~~~ create new file: ./SLO_FCT4_flux_ubs_00012240_restart.nc in WRITE mode
                    ---> ./SLO_FCT4_flux_ubs_00012240_restart.nc OK
           iom_nf90_rp0123d, file: ./SLO_FCT4_flux_ubs_00012240_restart.nc, var: kt define dimension variables done
           iom_nf90_rp0123d, file: ./SLO_FCT4_flux_ubs_00012240_restart.nc, var: kt defined ok
           iom_nf90_rp0123d, file: ./SLO_FCT4_flux_ubs_00012240_restart.nc, var: ndastp defined ok
           iom_nf90_rp0123d, file: ./SLO_FCT4_flux_ubs_00012240_restart.nc, var: adatrj defined ok
           iom_nf90_rp0123d, file: ./SLO_FCT4_flux_ubs_00012240_restart.nc, var: ntime defined ok

 sbc : ocean surface forcing fields written in ocean restart file at it=        12239  date=        10508
 ~~~~
           iom_nf90_rp0123d, file: ./SLO_FCT4_flux_ubs_00012240_restart.nc, var: utau_b defined ok
           iom_nf90_rp0123d, file: ./SLO_FCT4_flux_ubs_00012240_restart.nc, var: vtau_b defined ok
           iom_nf90_rp0123d, file: ./SLO_FCT4_flux_ubs_00012240_restart.nc, var: qns_b defined ok
           iom_nf90_rp0123d, file: ./SLO_FCT4_flux_ubs_00012240_restart.nc, var: emp_b defined ok
[...]
   nsec_week =   605250
======>> time-step =   64129      New day, DATE Y/M/D = 0002/10/31      nday_year = 304
         nsec_year = 26179650   nsec_month = 2592450   nsec_day =   450
   nsec_week =    86850
======>> time-step =   64225      New day, DATE Y/M/D = 0002/11/01      nday_year = 305
         nsec_year = 26266050   nsec_month =     450   nsec_day =   450
   nsec_week =   173250
======>> time-step =   64321      New day, DATE Y/M/D = 0002/11/02      nday_year = 306
         nsec_year = 26352450   nsec_month =   86850   nsec_day =   450
   nsec_week =   259650
======>> time-step =   64417      New day, DATE Y/M/D = 0002/11/03      nday_year = 307
         nsec_year = 26438850   nsec_month =  173250   nsec_day =   450
   nsec_week =   346050
======>> time-step =   64513      New day, DATE Y/M/D = 0002/11/04      nday_year = 308
         nsec_year = 26525250   nsec_month =  259650   nsec_day =   450
   nsec_week =   432450
======>> time-step =   64609      New day, DATE Y/M/D = 0002/11/05      nday_year = 309
         nsec_year = 26611650   nsec_month =  346050   nsec_day =   450
   nsec_week =   518850
======>> time-step =   64705      New day, DATE Y/M/D = 0002/11/06      nday_year = 310
         nsec_year = 26698050   nsec_month =  432450   nsec_day =   450
   nsec_week =   605250
======>> time-step =   64801      New day, DATE Y/M/D = 0002/11/07      nday_year = 311
         nsec_year = 26784450   nsec_month =  518850   nsec_day =   450
   nsec_week =    86850
======>> time-step =   64897      New day, DATE Y/M/D = 0002/11/08      nday_year = 312
         nsec_year = 26870850   nsec_month =  605250   nsec_day =   450
   nsec_week =   173250
======>> time-step =   64993      New day, DATE Y/M/D = 0002/11/09      nday_year = 313
         nsec_year = 26957250   nsec_month =  691650   nsec_day =   450
   nsec_week =   259650
======>> time-step =   65089      New day, DATE Y/M/D = 0002/11/10      nday_year = 314
         nsec_year = 27043650   nsec_month =  778050   nsec_day =   450
   nsec_week =   346050
======>> time-step =   65185      New day, DATE Y/M/D = 0002/11/11      nday_year = 315
         nsec_year = 27130050   nsec_month =  864450   nsec_day =   450
   nsec_week =   432450
======>> time-step =   65281      New day, DATE Y/M/D = 0002/11/12      nday_year = 316
         nsec_year = 27216450   nsec_month =  950850   nsec_day =   450
   nsec_week =   518850
======>> time-step =   65377      New day, DATE Y/M/D = 0002/11/13      nday_year = 317
         nsec_year = 27302850   nsec_month = 1037250   nsec_day =   450
   nsec_week =   605250
======>> time-step =   65473      New day, DATE Y/M/D = 0002/11/14      nday_year = 318
         nsec_year = 27389250   nsec_month = 1123650   nsec_day =   450
   nsec_week =    86850
======>> time-step =   65569      New day, DATE Y/M/D = 0002/11/15      nday_year = 319
         nsec_year = 27475650   nsec_month = 1210050   nsec_day =   450
   nsec_week =   173250
======>> time-step =   65665      New day, DATE Y/M/D = 0002/11/16      nday_year = 320
         nsec_year = 27562050   nsec_month = 1296450   nsec_day =   450
   nsec_week =   259650
======>> time-step =   65761      New day, DATE Y/M/D = 0002/11/17      nday_year = 321
         nsec_year = 27648450   nsec_month = 1382850   nsec_day =   450
   nsec_week =   346050
======>> time-step =   65857      New day, DATE Y/M/D = 0002/11/18      nday_year = 322
         nsec_year = 27734850   nsec_month = 1469250   nsec_day =   450
   nsec_week =   432450
======>> time-step =   65953      New day, DATE Y/M/D = 0002/11/19      nday_year = 323
         nsec_year = 27821250   nsec_month = 1555650   nsec_day =   450
   nsec_week =   518850
======>> time-step =   66049      New day, DATE Y/M/D = 0002/11/20      nday_year = 324
         nsec_year = 27907650   nsec_month = 1642050   nsec_day =   450
   nsec_week =   605250
======>> time-step =   66145      New day, DATE Y/M/D = 0002/11/21      nday_year = 325
         nsec_year = 27994050   nsec_month = 1728450   nsec_day =   450
   nsec_week =    86850
======>> time-step =   66241      New day, DATE Y/M/D = 0002/11/22      nday_year = 326
         nsec_year = 28080450   nsec_month = 1814850   nsec_day =   450
   nsec_week =   173250
======>> time-step =   66337      New day, DATE Y/M/D = 0002/11/23      nday_year = 327
         nsec_year = 28166850   nsec_month = 1901250   nsec_day =   450
   nsec_week =   259650
======>> time-step =   66433      New day, DATE Y/M/D = 0002/11/24      nday_year = 328
         nsec_year = 28253250   nsec_month = 1987650   nsec_day =   450
   nsec_week =   346050
======>> time-step =   66529      New day, DATE Y/M/D = 0002/11/25      nday_year = 329
         nsec_year = 28339650   nsec_month = 2074050   nsec_day =   450
   nsec_week =   432450
======>> time-step =   66625      New day, DATE Y/M/D = 0002/11/26      nday_year = 330
         nsec_year = 28426050   nsec_month = 2160450   nsec_day =   450
   nsec_week =   518850
======>> time-step =   66721      New day, DATE Y/M/D = 0002/11/27      nday_year = 331
         nsec_year = 28512450   nsec_month = 2246850   nsec_day =   450
   nsec_week =   605250
======>> time-step =   66817      New day, DATE Y/M/D = 0002/11/28      nday_year = 332
         nsec_year = 28598850   nsec_month = 2333250   nsec_day =   450
   nsec_week =    86850
======>> time-step =   66913      New day, DATE Y/M/D = 0002/11/29      nday_year = 333
         nsec_year = 28685250   nsec_month = 2419650   nsec_day =   450
   nsec_week =   173250
======>> time-step =   67009      New day, DATE Y/M/D = 0002/11/30      nday_year = 334
         nsec_year = 28771650   nsec_month = 2506050   nsec_day =   450
   nsec_week =   259650
======>> time-step =   67105      New day, DATE Y/M/D = 0002/12/01      nday_year = 335
         nsec_year = 28858050   nsec_month =     450   nsec_day =   450
   nsec_week =   346050
======>> time-step =   67201      New day, DATE Y/M/D = 0002/12/02      nday_year = 336
         nsec_year = 28944450   nsec_month =   86850   nsec_day =   450
   nsec_week =   432450
======>> time-step =   67297      New day, DATE Y/M/D = 0002/12/03      nday_year = 337
         nsec_year = 29030850   nsec_month =  173250   nsec_day =   450
   nsec_week =   518850

              open ocean restart NetCDF file: ./SLO_FCT4_flux_ubs_00067320_restart
              kt = nitrst - 1 =        67319
                     iom_nf90_open ~~~ create new file: ./SLO_FCT4_flux_ubs_00067320_restart.nc in WRITE mode
                    ---> ./SLO_FCT4_flux_ubs_00067320_restart.nc OK
           iom_nf90_rp0123d, file: ./SLO_FCT4_flux_ubs_00067320_restart.nc, var: kt define dimension variables done
           iom_nf90_rp0123d, file: ./SLO_FCT4_flux_ubs_00067320_restart.nc, var: kt defined ok
           iom_nf90_rp0123d, file: ./SLO_FCT4_flux_ubs_00067320_restart.nc, var: ndastp defined ok
           iom_nf90_rp0123d, file: ./SLO_FCT4_flux_ubs_00067320_restart.nc, var: adatrj defined ok
           iom_nf90_rp0123d, file: ./SLO_FCT4_flux_ubs_00067320_restart.nc, var: ntime defined ok

 sbc : ocean surface forcing fields written in ocean restart file at it=        67319  date=        21203
 ~~~~
           iom_nf90_rp0123d, file: ./SLO_FCT4_flux_ubs_00067320_restart.nc, var: utau_b defined ok
           iom_nf90_rp0123d, file: ./SLO_FCT4_flux_ubs_00067320_restart.nc, var: vtau_b defined ok
           iom_nf90_rp0123d, file: ./SLO_FCT4_flux_ubs_00067320_restart.nc, var: qns_b defined ok
           iom_nf90_rp0123d, file: ./SLO_FCT4_flux_ubs_00067320_restart.nc, var: emp_b defined ok
           iom_nf90_rp0123d, file: ./SLO_FCT4_flux_ubs_00067320_restart.nc, var: sfx_b defined ok
 ---- ts_rst ----
           iom_nf90_rp0123d, file: ./SLO_FCT4_flux_ubs_00067320_restart.nc, var: ub2_b defined ok
           iom_nf90_rp0123d, file: ./SLO_FCT4_flux_ubs_00067320_restart.nc, var: vb2_b defined ok
           iom_nf90_rp0123d, file: ./SLO_FCT4_flux_ubs_00067320_restart.nc, var: un_bf defined ok
           iom_nf90_rp0123d, file: ./SLO_FCT4_flux_ubs_00067320_restart.nc, var: vn_bf defined ok
           iom_nf90_rp0123d, file: ./SLO_FCT4_flux_ubs_00067320_restart.nc, var: sbc_hc_b defined ok
           iom_nf90_rp0123d, file: ./SLO_FCT4_flux_ubs_00067320_restart.nc, var: sbc_sc_b defined ok
           iom_nf90_rp0123d, file: ./SLO_FCT4_flux_ubs_00067320_restart.nc, var: rdt defined ok
           iom_nf90_rp0123d, file: ./SLO_FCT4_flux_ubs_00067320_restart.nc, var: ub defined ok
           iom_nf90_rp0123d, file: ./SLO_FCT4_flux_ubs_00067320_restart.nc, var: vb defined ok
           iom_nf90_rp0123d, file: ./SLO_FCT4_flux_ubs_00067320_restart.nc, var: tb defined ok
           iom_nf90_rp0123d, file: ./SLO_FCT4_flux_ubs_00067320_restart.nc, var: sb defined ok
           iom_nf90_rp0123d, file: ./SLO_FCT4_flux_ubs_00067320_restart.nc, var: sshb defined ok
           iom_nf90_rp0123d, file: ./SLO_FCT4_flux_ubs_00067320_restart.nc, var: un defined ok
           iom_nf90_rp0123d, file: ./SLO_FCT4_flux_ubs_00067320_restart.nc, var: vn defined ok
           iom_nf90_rp0123d, file: ./SLO_FCT4_flux_ubs_00067320_restart.nc, var: tn defined ok
           iom_nf90_rp0123d, file: ./SLO_FCT4_flux_ubs_00067320_restart.nc, var: sn defined ok
           iom_nf90_rp0123d, file: ./SLO_FCT4_flux_ubs_00067320_restart.nc, var: sshn defined ok
           iom_nf90_rp0123d, file: ./SLO_FCT4_flux_ubs_00067320_restart.nc, var: rhop defined ok

 rst_write : write oce restart file  kt =       67320
 ~~~~~~~
           iom_nf90_rp0123d, file: ./SLO_FCT4_flux_ubs_00067320_restart.nc, var: kt written ok
           iom_nf90_rp0123d, file: ./SLO_FCT4_flux_ubs_00067320_restart.nc, var: ndastp written ok
           iom_nf90_rp0123d, file: ./SLO_FCT4_flux_ubs_00067320_restart.nc, var: adatrj written ok
           iom_nf90_rp0123d, file: ./SLO_FCT4_flux_ubs_00067320_restart.nc, var: ntime written ok

 sbc : ocean surface forcing fields written in ocean restart file at it=        67320  date=        21203
 ~~~~
           iom_nf90_rp0123d, file: ./SLO_FCT4_flux_ubs_00067320_restart.nc, var: utau_b write dimension variables done
           iom_nf90_rp0123d, file: ./SLO_FCT4_flux_ubs_00067320_restart.nc, var: utau_b written ok
           iom_nf90_rp0123d, file: ./SLO_FCT4_flux_ubs_00067320_restart.nc, var: vtau_b written ok
           iom_nf90_rp0123d, file: ./SLO_FCT4_flux_ubs_00067320_restart.nc, var: qns_b written ok
           iom_nf90_rp0123d, file: ./SLO_FCT4_flux_ubs_00067320_restart.nc, var: emp_b written ok
           iom_nf90_rp0123d, file: ./SLO_FCT4_flux_ubs_00067320_restart.nc, var: sfx_b written ok
 ---- ts_rst ----
           iom_nf90_rp0123d, file: ./SLO_FCT4_flux_ubs_00067320_restart.nc, var: ub2_b written ok
           iom_nf90_rp0123d, file: ./SLO_FCT4_flux_ubs_00067320_restart.nc, var: vb2_b written ok
           iom_nf90_rp0123d, file: ./SLO_FCT4_flux_ubs_00067320_restart.nc, var: un_bf written ok
           iom_nf90_rp0123d, file: ./SLO_FCT4_flux_ubs_00067320_restart.nc, var: vn_bf written ok
           iom_nf90_rp0123d, file: ./SLO_FCT4_flux_ubs_00067320_restart.nc, var: sbc_hc_b written ok
           iom_nf90_rp0123d, file: ./SLO_FCT4_flux_ubs_00067320_restart.nc, var: sbc_sc_b written ok
           iom_nf90_rp0123d, file: ./SLO_FCT4_flux_ubs_00067320_restart.nc, var: rdt written ok
           iom_nf90_rp0123d, file: ./SLO_FCT4_flux_ubs_00067320_restart.nc, var: ub written ok
           iom_nf90_rp0123d, file: ./SLO_FCT4_flux_ubs_00067320_restart.nc, var: vb written ok
           iom_nf90_rp0123d, file: ./SLO_FCT4_flux_ubs_00067320_restart.nc, var: tb written ok
           iom_nf90_rp0123d, file: ./SLO_FCT4_flux_ubs_00067320_restart.nc, var: sb written ok
           iom_nf90_rp0123d, file: ./SLO_FCT4_flux_ubs_00067320_restart.nc, var: sshb written ok
           iom_nf90_rp0123d, file: ./SLO_FCT4_flux_ubs_00067320_restart.nc, var: un written ok
           iom_nf90_rp0123d, file: ./SLO_FCT4_flux_ubs_00067320_restart.nc, var: vn written ok
           iom_nf90_rp0123d, file: ./SLO_FCT4_flux_ubs_00067320_restart.nc, var: tn written ok
           iom_nf90_rp0123d, file: ./SLO_FCT4_flux_ubs_00067320_restart.nc, var: sn written ok
           iom_nf90_rp0123d, file: ./SLO_FCT4_flux_ubs_00067320_restart.nc, var: sshn written ok
           iom_nf90_rp0123d, file: ./SLO_FCT4_flux_ubs_00067320_restart.nc, var: rhop written ok
                     iom_close ~~~ close file: ./SLO_FCT4_flux_ubs_00067320_restart.nc ok
======>> time-step =   67393      New day, DATE Y/M/D = 0002/12/04      nday_year = 338
         nsec_year = 29117250   nsec_month =  259650   nsec_day =   450
   nsec_week =   605250
======>> time-step =   67489      New day, DATE Y/M/D = 0002/12/05      nday_year = 339
         nsec_year = 29203650   nsec_month =  346050   nsec_day =   450
   nsec_week =    86850
======>> time-step =   67585      New day, DATE Y/M/D = 0002/12/06      nday_year = 340
         nsec_year = 29290050   nsec_month =  432450   nsec_day =   450
   nsec_week =   173250
======>> time-step =   67681      New day, DATE Y/M/D = 0002/12/07      nday_year = 341
         nsec_year = 29376450   nsec_month =  518850   nsec_day =   450
   nsec_week =   259650
======>> time-step =   67777      New day, DATE Y/M/D = 0002/12/08      nday_year = 342
         nsec_year = 29462850   nsec_month =  605250   nsec_day =   450
   nsec_week =   346050
======>> time-step =   67873      New day, DATE Y/M/D = 0002/12/09      nday_year = 343
         nsec_year = 29549250   nsec_month =  691650   nsec_day =   450
   nsec_week =   432450
======>> time-step =   67969      New day, DATE Y/M/D = 0002/12/10      nday_year = 344
         nsec_year = 29635650   nsec_month =  778050   nsec_day =   450
   nsec_week =   518850

              open ocean restart NetCDF file: ./SLO_FCT4_flux_ubs_00068000_restart
              kt = nitrst - 1 =        67999
                     iom_nf90_open ~~~ create new file: ./SLO_FCT4_flux_ubs_00068000_restart.nc in WRITE mode
                    ---> ./SLO_FCT4_flux_ubs_00068000_restart.nc OK
           iom_nf90_rp0123d, file: ./SLO_FCT4_flux_ubs_00068000_restart.nc, var: kt define dimension variables done
           iom_nf90_rp0123d, file: ./SLO_FCT4_flux_ubs_00068000_restart.nc, var: kt defined ok
           iom_nf90_rp0123d, file: ./SLO_FCT4_flux_ubs_00068000_restart.nc, var: ndastp defined ok
           iom_nf90_rp0123d, file: ./SLO_FCT4_flux_ubs_00068000_restart.nc, var: adatrj defined ok
           iom_nf90_rp0123d, file: ./SLO_FCT4_flux_ubs_00068000_restart.nc, var: ntime defined ok

 sbc : ocean surface forcing fields written in ocean restart file at it=        67999  date=        21210
 ~~~~
           iom_nf90_rp0123d, file: ./SLO_FCT4_flux_ubs_00068000_restart.nc, var: utau_b defined ok
           iom_nf90_rp0123d, file: ./SLO_FCT4_flux_ubs_00068000_restart.nc, var: vtau_b defined ok
           iom_nf90_rp0123d, file: ./SLO_FCT4_flux_ubs_00068000_restart.nc, var: qns_b defined ok
           iom_nf90_rp0123d, file: ./SLO_FCT4_flux_ubs_00068000_restart.nc, var: emp_b defined ok
           iom_nf90_rp0123d, file: ./SLO_FCT4_flux_ubs_00068000_restart.nc, var: sfx_b defined ok
 ---- ts_rst ----
           iom_nf90_rp0123d, file: ./SLO_FCT4_flux_ubs_00068000_restart.nc, var: ub2_b defined ok
           iom_nf90_rp0123d, file: ./SLO_FCT4_flux_ubs_00068000_restart.nc, var: vb2_b defined ok
           iom_nf90_rp0123d, file: ./SLO_FCT4_flux_ubs_00068000_restart.nc, var: un_bf defined ok
           iom_nf90_rp0123d, file: ./SLO_FCT4_flux_ubs_00068000_restart.nc, var: vn_bf defined ok
           iom_nf90_rp0123d, file: ./SLO_FCT4_flux_ubs_00068000_restart.nc, var: sbc_hc_b defined ok
           iom_nf90_rp0123d, file: ./SLO_FCT4_flux_ubs_00068000_restart.nc, var: sbc_sc_b defined ok
           iom_nf90_rp0123d, file: ./SLO_FCT4_flux_ubs_00068000_restart.nc, var: rdt defined ok
           iom_nf90_rp0123d, file: ./SLO_FCT4_flux_ubs_00068000_restart.nc, var: ub defined ok
           iom_nf90_rp0123d, file: ./SLO_FCT4_flux_ubs_00068000_restart.nc, var: vb defined ok
           iom_nf90_rp0123d, file: ./SLO_FCT4_flux_ubs_00068000_restart.nc, var: tb defined ok
           iom_nf90_rp0123d, file: ./SLO_FCT4_flux_ubs_00068000_restart.nc, var: sb defined ok
           iom_nf90_rp0123d, file: ./SLO_FCT4_flux_ubs_00068000_restart.nc, var: sshb defined ok
           iom_nf90_rp0123d, file: ./SLO_FCT4_flux_ubs_00068000_restart.nc, var: un defined ok
           iom_nf90_rp0123d, file: ./SLO_FCT4_flux_ubs_00068000_restart.nc, var: vn defined ok
           iom_nf90_rp0123d, file: ./SLO_FCT4_flux_ubs_00068000_restart.nc, var: tn defined ok
           iom_nf90_rp0123d, file: ./SLO_FCT4_flux_ubs_00068000_restart.nc, var: sn defined ok
           iom_nf90_rp0123d, file: ./SLO_FCT4_flux_ubs_00068000_restart.nc, var: sshn defined ok
           iom_nf90_rp0123d, file: ./SLO_FCT4_flux_ubs_00068000_restart.nc, var: rhop defined ok

 rst_write : write oce restart file  kt =       68000
 ~~~~~~~
           iom_nf90_rp0123d, file: ./SLO_FCT4_flux_ubs_00068000_restart.nc, var: kt written ok
           iom_nf90_rp0123d, file: ./SLO_FCT4_flux_ubs_00068000_restart.nc, var: ndastp written ok
           iom_nf90_rp0123d, file: ./SLO_FCT4_flux_ubs_00068000_restart.nc, var: adatrj written ok
           iom_nf90_rp0123d, file: ./SLO_FCT4_flux_ubs_00068000_restart.nc, var: ntime written ok

 sbc : ocean surface forcing fields written in ocean restart file at it=        68000  date=        21210
 ~~~~
           iom_nf90_rp0123d, file: ./SLO_FCT4_flux_ubs_00068000_restart.nc, var: utau_b write dimension variables done
           iom_nf90_rp0123d, file: ./SLO_FCT4_flux_ubs_00068000_restart.nc, var: utau_b written ok
           iom_nf90_rp0123d, file: ./SLO_FCT4_flux_ubs_00068000_restart.nc, var: vtau_b written ok
           iom_nf90_rp0123d, file: ./SLO_FCT4_flux_ubs_00068000_restart.nc, var: qns_b written ok
           iom_nf90_rp0123d, file: ./SLO_FCT4_flux_ubs_00068000_restart.nc, var: emp_b written ok
           iom_nf90_rp0123d, file: ./SLO_FCT4_flux_ubs_00068000_restart.nc, var: sfx_b written ok
 ---- ts_rst ----
           iom_nf90_rp0123d, file: ./SLO_FCT4_flux_ubs_00068000_restart.nc, var: ub2_b written ok
           iom_nf90_rp0123d, file: ./SLO_FCT4_flux_ubs_00068000_restart.nc, var: vb2_b written ok
           iom_nf90_rp0123d, file: ./SLO_FCT4_flux_ubs_00068000_restart.nc, var: un_bf written ok
           iom_nf90_rp0123d, file: ./SLO_FCT4_flux_ubs_00068000_restart.nc, var: vn_bf written ok
           iom_nf90_rp0123d, file: ./SLO_FCT4_flux_ubs_00068000_restart.nc, var: sbc_hc_b written ok
           iom_nf90_rp0123d, file: ./SLO_FCT4_flux_ubs_00068000_restart.nc, var: sbc_sc_b written ok
           iom_nf90_rp0123d, file: ./SLO_FCT4_flux_ubs_00068000_restart.nc, var: rdt written ok
           iom_nf90_rp0123d, file: ./SLO_FCT4_flux_ubs_00068000_restart.nc, var: ub written ok
           iom_nf90_rp0123d, file: ./SLO_FCT4_flux_ubs_00068000_restart.nc, var: vb written ok
           iom_nf90_rp0123d, file: ./SLO_FCT4_flux_ubs_00068000_restart.nc, var: tb written ok
           iom_nf90_rp0123d, file: ./SLO_FCT4_flux_ubs_00068000_restart.nc, var: sb written ok
           iom_nf90_rp0123d, file: ./SLO_FCT4_flux_ubs_00068000_restart.nc, var: sshb written ok
           iom_nf90_rp0123d, file: ./SLO_FCT4_flux_ubs_00068000_restart.nc, var: un written ok
           iom_nf90_rp0123d, file: ./SLO_FCT4_flux_ubs_00068000_restart.nc, var: vn written ok
           iom_nf90_rp0123d, file: ./SLO_FCT4_flux_ubs_00068000_restart.nc, var: tn written ok
           iom_nf90_rp0123d, file: ./SLO_FCT4_flux_ubs_00068000_restart.nc, var: sn written ok
           iom_nf90_rp0123d, file: ./SLO_FCT4_flux_ubs_00068000_restart.nc, var: sshn written ok
           iom_nf90_rp0123d, file: ./SLO_FCT4_flux_ubs_00068000_restart.nc, var: rhop written ok
                     iom_close ~~~ close file: ./SLO_FCT4_flux_ubs_00068000_restart.nc ok

AAAAAAAA

